file 1695173 1501510687                                         
version 2
run SinusoidalJammingAttack-122-20170731-16:17:35-108922
attr CACCSpacing 5
attr attackAcc -30
attr attackPos 7
attr attackSpeed 150
attr attackStart 30
attr attacker 1
attr beaconInterval 0.1
attr configname SinusoidalJammingAttack
attr controller 3
attr datetime 20170731-16:17:35
attr experiment SinusoidalJammingAttack
attr fakeAcc "(1 == 4)"
attr fakePos "(1 == 2)"
attr fakeSpeed "(1 == 3)"
attr inifile omnetpp_122.ini
attr iterationvars "$leaderSpeed=150, $controller=3, $CACCSpacing=5, $sController=\"CONSENSUS\", $attacker=1, $attackStart=30, $attackSpeed=150, $attackPos=7, $attackAcc=-30, $0=15, $1=0.8, $nCars=8, $platoonSize=8, $nLanes=1, $beaconInterval=0.1, $priority=2, $packetSize=200, $ploegH=0.5, $leaderHeadway=1.2, $fakeSpeed=(1 == 3), $fakeAcc=(1 == 4), $fakePos=(1 == 2)"
attr iterationvarsf leaderSpeed=150,controller=3,CACCSpacing=5,sController=CONSENSUS,attacker=1,attackStart=30,attackSpeed=150,attackPos=7,attackAcc=-30,15,0.8,nCars=8,platoonSize=8,nLanes=1,beaconInterval=0.1,priority=2,packetSize=200,ploegH=0.5,leaderHeadway=1.2,fakeSpeed=(1_==_3),fakeAcc=(1_==_4),fakePos=(1_==_2)-
attr leaderHeadway 1.2
attr leaderSpeed 150
attr measurement "$leaderSpeed=150, $controller=3, $CACCSpacing=5, $sController=\"CONSENSUS\", $attacker=1, $attackStart=30, $attackSpeed=150, $attackPos=7, $attackAcc=-30, $0=15, $1=0.8, $nCars=8, $platoonSize=8, $nLanes=1, $beaconInterval=0.1, $priority=2, $packetSize=200, $ploegH=0.5, $leaderHeadway=1.2, $fakeSpeed=(1 == 3), $fakeAcc=(1 == 4), $fakePos=(1 == 2)"
attr nCars 8
attr nLanes 1
attr network scenario
attr packetSize 200
attr platoonSize 8
attr ploegH 0.5
attr priority 2
attr processid 108922
attr repetition 2
attr replication #2
attr resultdir results
attr runnumber 122
attr sController "\"CONSENSUS\""
attr seedset 2
param **.coreDebug false
param **.debug false
param **.headway 0.1s
param **.numberOfCars 8
param **.numberOfCarsPerPlatoon 8
param **.numberOfLanes 1
param **.numericController 3
param **.traffic.nCars 8
param **.traffic.nLanes 1
param **.traffic.platoonInsertDistance 15m
param **.traffic.platoonInsertHeadway 0.8s
param **.traffic.platoonInsertSpeed 150kmph
param **.traffic.platoonInsertTime "1 s"
param **.traffic.platoonLeaderHeadway 1.2s
param **.traffic.platoonSize 8
param **.traffic.platooningVType "\"vtypeauto\""
param **.traffic_type "\"PlatoonsTrafficManager\""
param *.**.nic.mac1609_4.bitrate 6Mbps
param *.**.nic.mac1609_4.txPower 100mW
param *.**.nic.mac1609_4.useServiceChannel false
param *.**.nic.phy80211p.analogueModels "xmldoc(\"config.xml\")"
param *.**.nic.phy80211p.decider "xmldoc(\"config.xml\")"
param *.**.nic.phy80211p.maxTXPower 100mW
param *.**.nic.phy80211p.sensitivity -94dBm
param *.**.nic.phy80211p.thermalNoise -95dBm
param *.**.nic.phy80211p.usePropagationDelay true
param *.**.nic.phy80211p.useThermalNoise true
param *.annotations.draw false
param *.connectionManager.alpha 2.0
param *.connectionManager.carrierFrequency "5.890e9 Hz"
param *.connectionManager.pMax 100mW
param *.connectionManager.sat -94dBm
param *.connectionManager.sendDirect true
param *.manager.autoShutdown true
param *.manager.commandLine "\"sumo --remote-port $port --seed $seed --configuration-file $configFile\""
param *.manager.configFile "\"./sumocfg/freeway.sumo.cfg\""
param *.manager.host "\"localhost\""
param *.manager.margin 25
param *.manager.moduleDisplayString "\"\""
param *.manager.moduleName "\"node\""
param *.manager.moduleType "\"Car\""
param *.manager.updateInterval 0.01s
param *.node[*].appl.attackStart 30s
param *.node[*].appl.attackerType 1
param *.node[*].appl.simulationDuration "60 s"
param *.node[*].appl_type "\"SimplePlatooningApp\""
param *.node[*].helper.nCars 8
param *.node[*].helper.nLanes 1
param *.node[*].helper.platoonSize 8
param *.node[*].helper_type "\"PositionHelper\""
param *.node[*].mobility.x 0
param *.node[*].mobility.y 0
param *.node[*].mobility.z 1.895
param *.node[*].prot.attackStart 30s
param *.node[*].prot.attackerType 1
param *.node[*].prot.attackingNode 3
param *.node[*].prot.beaconingInterval 0.1s
param *.node[*].prot.fakeAcc "(1 == 4)"
param *.node[*].prot.fakePos "(1 == 2)"
param *.node[*].prot.fakeSpeed "(1 == 3)"
param *.node[*].prot.maliciousAcc "-30 mpss"
param *.node[*].prot.maliciousSpeed 150kmph
param *.node[*].prot.packetSize 200
param *.node[*].prot.priority 2
param *.node[*].prot.shiftX "7 m"
param *.node[*].prot.useControllerAcceleration true
param *.node[*].protocol_type "\"SimplePlatooningBeaconing\""
param *.node[*].scenario.accHeadway 0.1s
param *.node[*].scenario.caccC1 0.5
param *.node[*].scenario.caccOmegaN "0.2 Hz"
param *.node[*].scenario.caccSpacing 5m
param *.node[*].scenario.caccXi 1
param *.node[*].scenario.controller "\"CONSENSUS\""
param *.node[*].scenario.engineTau "0.5 s"
param *.node[*].scenario.leaderHeadway 1.2s
param *.node[*].scenario.leaderOscillationFrequency "0.2 Hz"
param *.node[*].scenario.leaderSpeed 150kmph
param *.node[*].scenario.oscillationAmplitude "10 kmph"
param *.node[*].scenario.ploegH 0.5s
param *.node[*].scenario.ploegKd 0.7
param *.node[*].scenario.ploegKp 0.2
param *.node[*].scenario.startOscillating "5 s"
param *.node[*].scenario.useRealisticEngine false
param *.node[*].scenario_type "\"SinusoidalScenario\""
param *.node[*].unicast.packetLossRate 0
param *.obstacles.debug false
param *.playgroundSizeX 65000m
param *.playgroundSizeY 25000m
param *.playgroundSizeZ 50m
param *.world.use2D false
param *.world.useTorus false

vector 0  scenario.node[0].appl  distance  ETV
vector 1  scenario.node[0].appl  relativeSpeed  ETV
vector 2  scenario.node[0].appl  nodeId  ETV
vector 6  scenario.node[0].appl  acceleration  ETV
vector 7  scenario.node[0].appl  controllerAcceleration  ETV
vector 3  scenario.node[0].appl  speed  ETV
vector 4  scenario.node[0].appl  posx  ETV
vector 5  scenario.node[0].appl  posy  ETV
vector 22  scenario.node[1].appl  distance  ETV
vector 23  scenario.node[1].appl  relativeSpeed  ETV
vector 24  scenario.node[1].appl  nodeId  ETV
vector 28  scenario.node[1].appl  acceleration  ETV
vector 29  scenario.node[1].appl  controllerAcceleration  ETV
vector 25  scenario.node[1].appl  speed  ETV
vector 26  scenario.node[1].appl  posx  ETV
vector 27  scenario.node[1].appl  posy  ETV
vector 44  scenario.node[2].appl  distance  ETV
vector 45  scenario.node[2].appl  relativeSpeed  ETV
vector 46  scenario.node[2].appl  nodeId  ETV
vector 50  scenario.node[2].appl  acceleration  ETV
vector 51  scenario.node[2].appl  controllerAcceleration  ETV
vector 47  scenario.node[2].appl  speed  ETV
vector 48  scenario.node[2].appl  posx  ETV
vector 49  scenario.node[2].appl  posy  ETV
vector 66  scenario.node[3].appl  distance  ETV
vector 67  scenario.node[3].appl  relativeSpeed  ETV
vector 68  scenario.node[3].appl  nodeId  ETV
vector 72  scenario.node[3].appl  acceleration  ETV
vector 73  scenario.node[3].appl  controllerAcceleration  ETV
vector 69  scenario.node[3].appl  speed  ETV
vector 70  scenario.node[3].appl  posx  ETV
vector 71  scenario.node[3].appl  posy  ETV
vector 88  scenario.node[4].appl  distance  ETV
vector 89  scenario.node[4].appl  relativeSpeed  ETV
vector 90  scenario.node[4].appl  nodeId  ETV
vector 94  scenario.node[4].appl  acceleration  ETV
vector 95  scenario.node[4].appl  controllerAcceleration  ETV
vector 91  scenario.node[4].appl  speed  ETV
vector 92  scenario.node[4].appl  posx  ETV
vector 93  scenario.node[4].appl  posy  ETV
vector 110  scenario.node[5].appl  distance  ETV
vector 111  scenario.node[5].appl  relativeSpeed  ETV
vector 112  scenario.node[5].appl  nodeId  ETV
vector 116  scenario.node[5].appl  acceleration  ETV
vector 117  scenario.node[5].appl  controllerAcceleration  ETV
vector 113  scenario.node[5].appl  speed  ETV
vector 114  scenario.node[5].appl  posx  ETV
vector 115  scenario.node[5].appl  posy  ETV
vector 132  scenario.node[6].appl  distance  ETV
vector 133  scenario.node[6].appl  relativeSpeed  ETV
vector 134  scenario.node[6].appl  nodeId  ETV
vector 138  scenario.node[6].appl  acceleration  ETV
vector 139  scenario.node[6].appl  controllerAcceleration  ETV
vector 135  scenario.node[6].appl  speed  ETV
vector 136  scenario.node[6].appl  posx  ETV
vector 137  scenario.node[6].appl  posy  ETV
vector 154  scenario.node[7].appl  distance  ETV
vector 155  scenario.node[7].appl  relativeSpeed  ETV
vector 156  scenario.node[7].appl  nodeId  ETV
vector 160  scenario.node[7].appl  acceleration  ETV
vector 161  scenario.node[7].appl  controllerAcceleration  ETV
vector 157  scenario.node[7].appl  speed  ETV
vector 158  scenario.node[7].appl  posx  ETV
vector 159  scenario.node[7].appl  posy  ETV
vector 168  scenario.node[7].prot  frontDelay  ETV
vector 166  scenario.node[7].prot  frontDelayId  ETV
vector 146  scenario.node[6].prot  frontDelay  ETV
vector 144  scenario.node[6].prot  frontDelayId  ETV
vector 35  scenario.node[1].prot  leaderDelay  ETV
vector 33  scenario.node[1].prot  leaderDelayId  ETV
vector 36  scenario.node[1].prot  frontDelay  ETV
vector 34  scenario.node[1].prot  frontDelayId  ETV
vector 57  scenario.node[2].prot  leaderDelay  ETV
vector 55  scenario.node[2].prot  leaderDelayId  ETV
vector 79  scenario.node[3].prot  leaderDelay  ETV
vector 77  scenario.node[3].prot  leaderDelayId  ETV
vector 101  scenario.node[4].prot  leaderDelay  ETV
vector 99  scenario.node[4].prot  leaderDelayId  ETV
vector 123  scenario.node[5].prot  leaderDelay  ETV
vector 121  scenario.node[5].prot  leaderDelayId  ETV
vector 145  scenario.node[6].prot  leaderDelay  ETV
vector 143  scenario.node[6].prot  leaderDelayId  ETV
vector 167  scenario.node[7].prot  leaderDelay  ETV
vector 165  scenario.node[7].prot  leaderDelayId  ETV
vector 102  scenario.node[4].prot  frontDelay  ETV
vector 100  scenario.node[4].prot  frontDelayId  ETV
vector 80  scenario.node[3].prot  frontDelay  ETV
vector 78  scenario.node[3].prot  frontDelayId  ETV
vector 124  scenario.node[5].prot  frontDelay  ETV
vector 122  scenario.node[5].prot  frontDelayId  ETV
vector 58  scenario.node[2].prot  frontDelay  ETV
vector 56  scenario.node[2].prot  frontDelayId  ETV
vector 8  scenario.node[0].prot  nodeId  ETV
vector 9  scenario.node[0].prot  busyTime  ETV
vector 10  scenario.node[0].prot  collisions  ETV
vector 30  scenario.node[1].prot  nodeId  ETV
vector 31  scenario.node[1].prot  busyTime  ETV
vector 32  scenario.node[1].prot  collisions  ETV
vector 52  scenario.node[2].prot  nodeId  ETV
vector 53  scenario.node[2].prot  busyTime  ETV
vector 54  scenario.node[2].prot  collisions  ETV
vector 74  scenario.node[3].prot  nodeId  ETV
vector 75  scenario.node[3].prot  busyTime  ETV
vector 76  scenario.node[3].prot  collisions  ETV
vector 96  scenario.node[4].prot  nodeId  ETV
vector 97  scenario.node[4].prot  busyTime  ETV
vector 98  scenario.node[4].prot  collisions  ETV
vector 118  scenario.node[5].prot  nodeId  ETV
vector 119  scenario.node[5].prot  busyTime  ETV
vector 120  scenario.node[5].prot  collisions  ETV
vector 140  scenario.node[6].prot  nodeId  ETV
vector 141  scenario.node[6].prot  busyTime  ETV
vector 142  scenario.node[6].prot  collisions  ETV
vector 162  scenario.node[7].prot  nodeId  ETV
vector 163  scenario.node[7].prot  busyTime  ETV
vector 164  scenario.node[7].prot  collisions  ETV
7	11271 13862 232 328174 1.11 59.91 589 -1.5 1.5 -14.445978168666 993.24092374633
6	25133 18591 232 328174 1.11 59.91 589 -1.4722746794739 1.4513434175775 -12.507273387293 675.29835233824
5	43724 12081 232 328174 1.11 59.91 589 36.55 36.55 21527.95 786846.5725
4	55805 17911 232 328174 1.11 59.91 589 405.39329032858 2859.7094229154 962392.51824946 1868720718.3203
3	73716 17882 232 328174 1.11 59.91 589 40.376854748618 43.631381416411 24584.394369227 1026576.1694128
1	91598 9725 232 328174 1.11 59.91 589 0 0 0 0
0	101323 10314 232 328174 1.11 59.91 589 -1 -1 -589 589
2	111637 9725 232 328174 1.11 59.91 589 0 0 0 0
10	121362 858 5168 328662 2 60 59 0 0 0 0
9	122220 1154 5168 328662 2 60 59 0.023297 0.02625 1.545797 0.040508375209
8	123374 799 5168 328662 2 60 59 0 0 0 0
29	124173 20162 233 328175 1.11 59.91 589 -1.9952324005337 1.988789226698 -12.833028102539 522.9384627992
28	144335 20189 233 328175 1.11 59.91 589 -1.7216162747161 1.7124376221211 -12.569865660642 364.13311596421
27	164524 12670 233 328175 1.11 59.91 589 36.55 36.55 21527.95 786846.5725
26	177194 18495 233 328175 1.11 59.91 589 353.0599773407 2770.7123888595 926251.64326473 1744243455.4344
25	195689 18507 233 328175 1.11 59.91 589 40.169024752856 43.622328963617 24217.751392666 996294.27976515
23	214196 19132 233 328175 1.11 59.91 589 -1.2227418679399 2.5448743087201 366.76804929463 899.31459456611
22	233328 18502 233 328175 1.11 59.91 589 47.28769889588 84.996398555535 33777.542125202 2017972.2082405
24	251830 10314 233 328175 1.11 59.91 589 1 1 589 589
36	262144 23685 1034 328420 1.26222141152 59.962221619122 588 0.099988838839 0.100002020085 58.800002048036 5.8800004218958
35	285829 23685 1034 328420 1.26222141152 59.962221619122 588 0.099988838839 0.100002020085 58.800002048036 5.8800004218958
34	309514 16107 1034 328420 1.26222141152 59.962221619122 588 1 1 588 588
33	325621 16107 1034 328420 1.26222141152 59.962221619122 588 1 1 588 588
32	341728 858 5169 328663 2 60 59 0 0 0 0
31	342586 1213 5169 328663 2 60 59 0.023296 0.02625 1.545796 0.040508328616
30	343799 858 5169 328663 2 60 59 1 1 59 59
51	344657 20106 234 328176 1.11 59.91 589 -1.5031396373354 1.490624362072 -13.019840283278 308.02048188608
50	364763 20145 234 328176 1.11 59.91 589 -1.2939013258794 1.2700016557275 -12.575213183631 206.17355650853
49	384908 12670 234 328176 1.11 59.91 589 36.55 36.55 21527.95 786846.5725
48	397578 18482 234 328176 1.11 59.91 589 300.72663383484 2719.3830440434 895646.33334602 1649965332.8402
47	416060 18498 234 328176 1.11 59.91 589 40.411205594783 43.289997416391 24227.791388425 996998.89392756
45	434558 20217 234 328176 1.11 59.91 589 -0.38763917105373 0.35856797691154 -9.9142971025321 17.135420541282
44	454775 18489 234 328176 1.11 59.91 589 47.329347593043 48.985809647462 28249.510718622 1355068.7894292
46	473264 10314 234 328176 1.11 59.91 589 2 2 1178 2356
58	483578 23722 1312 328701 1.302601982607 60.00260216018 588 0.099988838937 0.100002020082 58.800002018007 5.8800004158878
57	507300 23724 1040 328426 1.262221586085 59.962221790338 588 0.099988838722 0.100002020085 58.800002044687 5.880000421226
56	531024 16130 1312 328701 1.302601982607 60.00260216018 588 2 2 1176 2352
55	547154 16124 1040 328426 1.262221586085 59.962221790338 588 2 2 1176 2352
54	563278 858 5170 328664 2 60 59 0 0 0 0
53	564136 1213 5170 328664 2 60 59 0.023297 0.02625 1.545797 0.040508375209
52	565349 858 5170 328664 2 60 59 2 2 118 236
73	566207 19993 235 328177 1.11 59.91 589 -1.5273841794446 1.5176850869491 -12.507273445566 312.7909399311
72	586200 20009 235 328177 1.11 59.91 589 -1.3287191309935 1.3161842867639 -12.560397805913 220.12324692563
71	606209 12670 235 328177 1.11 59.91 589 36.55 36.55 21527.95 786846.5725
70	618879 18506 235 328177 1.11 59.91 589 248.39330558777 2668.051130342 865006.33246874 1558734673.7404
69	637385 18485 235 328177 1.11 59.91 589 40.411978736123 43.231357876052 24237.80569915 997816.00245656
67	655870 20275 235 328177 1.11 59.91 589 -0.1317067085567 0.12090040713389 -9.888558592965 1.6954592587332
66	676145 18474 235 328177 1.11 59.91 589 47.331929164288 48.652749280344 28284.201163496 1358366.7091839
68	694619 10314 235 328177 1.11 59.91 589 3 3 1767 5301
80	704933 23694 1176 328562 1.287878109781 59.987878304013 588 0.099988839194 0.100002020084 58.800002034666 5.8800004192197
79	728627 23699 1046 328432 1.262221760651 59.962221961563 588 0.099988838736 0.100002020084 58.800002041346 5.8800004205578
78	752326 16117 1176 328562 1.287878109781 59.987878304013 588 3 3 1764 5292
77	768443 16120 1046 328432 1.262221760651 59.962221961563 588 3 3 1764 5292
76	784563 858 5171 328665 2 60 59 0 0 0 0
75	785421 1213 5171 328665 2 60 59 0.023297 0.02625 1.545797 0.040508375209
74	786634 858 5171 328665 2 60 59 3 3 177 531
95	787492 19898 236 328178 1.11 59.91 589 -1.4863396899159 1.4823224452661 -12.455720604755 299.41050855347
94	807390 19933 236 328178 1.11 59.91 589 -1.2912429794035 1.2828241488229 -12.526386172075 209.6755151541
93	827323 12670 236 328178 1.11 59.91 589 36.55 36.55 21527.95 786846.5725
92	839993 18495 236 328178 1.11 59.91 589 196.05996208191 2616.7099831751 834334.82212249 1470564700.2836
91	858488 18486 236 328178 1.11 59.91 589 40.414745314703 43.195916949187 24247.728616503 998612.1834787
89	876974 20329 236 328178 1.11 59.91 589 -0.076179708726627 0.051996086106321 -9.797313374363 0.71729889319811
88	897303 18489 236 328178 1.11 59.91 589 47.341202498434 48.563993188203 28315.708804599 1361371.594516
90	915792 10314 236 328178 1.11 59.91 589 4 4 2356 9424
102	926106 24298 1108 328494 1.276583935216 59.976584132818 588 0.099988839173 0.100002020083 58.800002038036 5.8800004198936
101	950404 24285 1052 328438 1.262221935216 59.962222132818 588 0.099988838723 0.100002020083 58.800002038036 5.8800004198958
100	974689 16698 1108 328494 1.276583935216 59.976584132818 588 4 4 2352 9408
99	991387 16112 1052 328438 1.262221935216 59.962222132818 588 4 4 2352 9408
98	1007499 858 5172 328666 2 60 59 0 0 0 0
97	1008357 1213 5172 328666 2 60 59 0.023297 0.02625 1.545797 0.040508375209
96	1009570 858 5172 328666 2 60 59 4 4 236 944
117	1010428 20477 237 328179 1.11 59.91 589 -1.436519319981 1.4354912739752 -11.935265919438 280.22038953064
116	1030905 20496 237 328179 1.11 59.91 589 -1.2579044070954 1.2517727474389 -12.474254852324 198.75536040723
115	1051401 13259 237 328179 1.11 59.91 589 36.55 36.55 21527.95 786846.5725
114	1064660 19097 237 328179 1.11 59.91 589 143.72663383484 2565.3451214764 803635.35391553 1385471346.0459
113	1083757 19092 237 328179 1.11 59.91 589 40.421837347877 43.160808614067 24257.415626099 999388.30570427
111	1102849 20815 237 328179 1.11 59.91 589 -0.061293308937522 0.053235460673442 -9.5617457350816 0.61351829387479
110	1123664 19065 237 328179 1.11 59.91 589 47.365003539425 48.531658286016 28343.661947152 1364037.5748681
112	1142729 10903 237 328179 1.11 59.91 589 5 5 2945 14725
124	1153632 24283 1244 328630 1.297508458911 59.997508646601 588 0.099988838948 0.10000202008 58.800002028124 5.8800004179118
123	1177915 24298 1058 328444 1.262222109781 59.962222304151 588 0.09998883871 0.100002020081 58.800002034804 5.8800004192494
122	1202213 16705 1244 328630 1.297508458911 59.997508646601 588 5 5 2940 14700
121	1218918 16711 1058 328444 1.262222109781 59.962222304151 588 5 5 2940 14700
120	1235629 917 5173 328667 2 60 59 0 0 0 0
119	1236546 1272 5173 328667 2 60 59 0.023297 0.02625 1.545797 0.040508375209
118	1237818 917 5173 328667 2 60 59 5 5 295 1475
139	1238735 20427 238 328180 1.11 59.91 589 -1.4230876917928 1.4211778174983 -12.679873761575 275.09934875548
138	1259162 20471 238 328180 1.11 59.91 589 -1.2266206865092 1.2227592181915 -12.307961296316 189.41650334274
137	1279633 13259 238 328180 1.11 59.91 589 36.55 36.55 21527.95 786846.5725
136	1292892 19088 238 328180 1.11 59.91 589 91.393301773071 2513.9339040324 772911.93622573 1303473720.425
135	1311980 19090 238 328180 1.11 59.91 589 40.435730002387 43.125908015858 24266.642141759 1000128.2447388
133	1331070 20837 238 328180 1.11 59.91 589 -0.051017046686034 0.037301325535061 -9.1017731111707 0.49237463269689
132	1351907 19091 238 328180 1.11 59.91 589 47.411495297043 48.497595107687 28367.602220112 1366320.6629121
134	1370998 10903 238 328180 1.11 59.91 589 6 6 3534 21204
146	1381901 24270 970 328356 1.247598538694 59.947598511852 588 0.099988838504 0.10000202005 58.800001813592 5.8800003750055
145	1406171 24293 1064 328450 1.262222284346 59.962222475638 588 0.099988838699 0.100002020077 58.800002031726 5.8800004186338
144	1430464 16688 970 328356 1.247598538694 59.947598511852 588 6 6 3528 21168
143	1447152 16702 1064 328450 1.262222284346 59.962222475638 588 6 6 3528 21168
142	1463854 917 5174 328668 2 60 59 0 0 0 0
141	1464771 1272 5174 328668 2 60 59 0.023297 0.02625 1.545797 0.040508375209
140	1466043 917 5174 328668 2 60 59 6 6 354 2124
161	1466960 20406 239 328181 1.11 59.91 589 -1.401343607487 1.3974603140574 -13.252682866719 266.62262406924
160	1487366 20452 239 328181 1.11 59.91 589 -1.1971819899038 1.1935602916452 -12.126214605926 180.51919138802
159	1507818 13259 239 328181 1.11 59.91 589 36.55 36.55 21527.95 786846.5725
158	1521077 19081 239 328181 1.11 59.91 589 39.059966850281 2462.4506767913 742168.906112 1224593462.6827
157	1540158 19085 239 328181 1.11 59.91 589 40.457472563548 43.091832750358 24275.150748788 1000810.0962528
155	1559243 20838 239 328181 1.11 59.91 589 -0.043668515520494 0.037217675387389 -8.3855274163599 0.43393296908607
154	1580081 19083 239 328181 1.11 59.91 589 47.483662092338 48.475662041051 28387.20028587 1368189.9941948
156	1599164 10903 239 328181 1.11 59.91 589 7 7 4123 28861
168	1610067 24292 832 328218 1.212127014999 59.912126997146 588 0.099988838797 0.100002020032 58.799988822581 5.8799977769222
167	1634359 24295 1070 328456 1.262222458911 59.962222647364 588 0.099988838689 0.100002020069 58.800002028887 5.880000418066
166	1658654 16703 832 328218 1.212127014999 59.912126997146 588 7 7 4116 28812
165	1675357 16710 1070 328456 1.262222458911 59.962222647364 588 7 7 4116 28812
164	1692067 917 5175 328669 2 60 59 0 0 0 0
163	1692984 1272 5175 328669 2 60 59 0.023297 0.02625 1.545797 0.040508375209
162	1694256 917 5175 328669 2 60 59 7 7 413 2891
