file 1688489 1501509228                                         
version 2
run SinusoidalJammingAttack-30-20170731-15:53:18-20319
attr CACCSpacing 12.5
attr attackAcc -30
attr attackPos 7
attr attackSpeed 150
attr attackStart 30
attr attacker 1
attr beaconInterval 0.1
attr configname SinusoidalJammingAttack
attr controller 1
attr datetime 20170731-15:53:18
attr experiment SinusoidalJammingAttack
attr fakeAcc "(1 == 4)"
attr fakePos "(1 == 2)"
attr fakeSpeed "(1 == 3)"
attr inifile omnetpp_30.ini
attr iterationvars "$leaderSpeed=80, $controller=1, $CACCSpacing=12.5, $sController=\"CACC\", $attacker=1, $attackStart=30, $attackSpeed=150, $attackPos=7, $attackAcc=-30, $0=12.5, $1=0, $nCars=8, $platoonSize=8, $nLanes=1, $beaconInterval=0.1, $priority=2, $packetSize=200, $ploegH=0.5, $leaderHeadway=1.2, $fakeSpeed=(1 == 3), $fakeAcc=(1 == 4), $fakePos=(1 == 2)"
attr iterationvarsf leaderSpeed=80,controller=1,CACCSpacing=12.5,sController=CACC,attacker=1,attackStart=30,attackSpeed=150,attackPos=7,attackAcc=-30,12.5,0,nCars=8,platoonSize=8,nLanes=1,beaconInterval=0.1,priority=2,packetSize=200,ploegH=0.5,leaderHeadway=1.2,fakeSpeed=(1_==_3),fakeAcc=(1_==_4),fakePos=(1_==_2)-
attr leaderHeadway 1.2
attr leaderSpeed 80
attr measurement "$leaderSpeed=80, $controller=1, $CACCSpacing=12.5, $sController=\"CACC\", $attacker=1, $attackStart=30, $attackSpeed=150, $attackPos=7, $attackAcc=-30, $0=12.5, $1=0, $nCars=8, $platoonSize=8, $nLanes=1, $beaconInterval=0.1, $priority=2, $packetSize=200, $ploegH=0.5, $leaderHeadway=1.2, $fakeSpeed=(1 == 3), $fakeAcc=(1 == 4), $fakePos=(1 == 2)"
attr nCars 8
attr nLanes 1
attr network scenario
attr packetSize 200
attr platoonSize 8
attr ploegH 0.5
attr priority 2
attr processid 20319
attr repetition 0
attr replication #0
attr resultdir results
attr runnumber 30
attr sController "\"CACC\""
attr seedset 0
param **.coreDebug false
param **.debug false
param **.headway 0.1s
param **.numberOfCars 8
param **.numberOfCarsPerPlatoon 8
param **.numberOfLanes 1
param **.numericController 1
param **.traffic.nCars 8
param **.traffic.nLanes 1
param **.traffic.platoonInsertDistance 12.5m
param **.traffic.platoonInsertHeadway 0s
param **.traffic.platoonInsertSpeed 80kmph
param **.traffic.platoonInsertTime "1 s"
param **.traffic.platoonLeaderHeadway 1.2s
param **.traffic.platoonSize 8
param **.traffic.platooningVType "\"vtypeauto\""
param **.traffic_type "\"PlatoonsTrafficManager\""
param *.**.nic.mac1609_4.bitrate 6Mbps
param *.**.nic.mac1609_4.txPower 100mW
param *.**.nic.mac1609_4.useServiceChannel false
param *.**.nic.phy80211p.analogueModels "xmldoc(\"config.xml\")"
param *.**.nic.phy80211p.decider "xmldoc(\"config.xml\")"
param *.**.nic.phy80211p.maxTXPower 100mW
param *.**.nic.phy80211p.sensitivity -94dBm
param *.**.nic.phy80211p.thermalNoise -95dBm
param *.**.nic.phy80211p.usePropagationDelay true
param *.**.nic.phy80211p.useThermalNoise true
param *.annotations.draw false
param *.connectionManager.alpha 2.0
param *.connectionManager.carrierFrequency "5.890e9 Hz"
param *.connectionManager.pMax 100mW
param *.connectionManager.sat -94dBm
param *.connectionManager.sendDirect true
param *.manager.autoShutdown true
param *.manager.commandLine "\"sumo --remote-port $port --seed $seed --configuration-file $configFile\""
param *.manager.configFile "\"./sumocfg/freeway.sumo.cfg\""
param *.manager.host "\"localhost\""
param *.manager.margin 25
param *.manager.moduleDisplayString "\"\""
param *.manager.moduleName "\"node\""
param *.manager.moduleType "\"Car\""
param *.manager.updateInterval 0.01s
param *.node[*].appl.attackStart 30s
param *.node[*].appl.attackerType 1
param *.node[*].appl.simulationDuration "60 s"
param *.node[*].appl_type "\"SimplePlatooningApp\""
param *.node[*].helper.nCars 8
param *.node[*].helper.nLanes 1
param *.node[*].helper.platoonSize 8
param *.node[*].helper_type "\"PositionHelper\""
param *.node[*].mobility.x 0
param *.node[*].mobility.y 0
param *.node[*].mobility.z 1.895
param *.node[*].prot.attackStart 30s
param *.node[*].prot.attackerType 1
param *.node[*].prot.attackingNode 3
param *.node[*].prot.beaconingInterval 0.1s
param *.node[*].prot.fakeAcc "(1 == 4)"
param *.node[*].prot.fakePos "(1 == 2)"
param *.node[*].prot.fakeSpeed "(1 == 3)"
param *.node[*].prot.maliciousAcc "-30 mpss"
param *.node[*].prot.maliciousSpeed 150kmph
param *.node[*].prot.packetSize 200
param *.node[*].prot.priority 2
param *.node[*].prot.shiftX "7 m"
param *.node[*].prot.useControllerAcceleration true
param *.node[*].protocol_type "\"SimplePlatooningBeaconing\""
param *.node[*].scenario.accHeadway 0.1s
param *.node[*].scenario.caccC1 0.5
param *.node[*].scenario.caccOmegaN "0.2 Hz"
param *.node[*].scenario.caccSpacing 12.5m
param *.node[*].scenario.caccXi 1
param *.node[*].scenario.controller "\"CACC\""
param *.node[*].scenario.engineTau "0.5 s"
param *.node[*].scenario.leaderHeadway 1.2s
param *.node[*].scenario.leaderOscillationFrequency "0.2 Hz"
param *.node[*].scenario.leaderSpeed 80kmph
param *.node[*].scenario.oscillationAmplitude "10 kmph"
param *.node[*].scenario.ploegH 0.5s
param *.node[*].scenario.ploegKd 0.7
param *.node[*].scenario.ploegKp 0.2
param *.node[*].scenario.startOscillating "5 s"
param *.node[*].scenario.useRealisticEngine false
param *.node[*].scenario_type "\"SinusoidalScenario\""
param *.node[*].unicast.packetLossRate 0
param *.obstacles.debug false
param *.playgroundSizeX 65000m
param *.playgroundSizeY 25000m
param *.playgroundSizeZ 50m
param *.world.use2D false
param *.world.useTorus false

vector 0  scenario.node[0].appl  distance  ETV
vector 1  scenario.node[0].appl  relativeSpeed  ETV
vector 2  scenario.node[0].appl  nodeId  ETV
vector 6  scenario.node[0].appl  acceleration  ETV
vector 7  scenario.node[0].appl  controllerAcceleration  ETV
vector 3  scenario.node[0].appl  speed  ETV
vector 4  scenario.node[0].appl  posx  ETV
vector 5  scenario.node[0].appl  posy  ETV
vector 22  scenario.node[1].appl  distance  ETV
vector 23  scenario.node[1].appl  relativeSpeed  ETV
vector 24  scenario.node[1].appl  nodeId  ETV
vector 28  scenario.node[1].appl  acceleration  ETV
vector 29  scenario.node[1].appl  controllerAcceleration  ETV
vector 25  scenario.node[1].appl  speed  ETV
vector 26  scenario.node[1].appl  posx  ETV
vector 27  scenario.node[1].appl  posy  ETV
vector 44  scenario.node[2].appl  distance  ETV
vector 45  scenario.node[2].appl  relativeSpeed  ETV
vector 46  scenario.node[2].appl  nodeId  ETV
vector 50  scenario.node[2].appl  acceleration  ETV
vector 51  scenario.node[2].appl  controllerAcceleration  ETV
vector 47  scenario.node[2].appl  speed  ETV
vector 48  scenario.node[2].appl  posx  ETV
vector 49  scenario.node[2].appl  posy  ETV
vector 66  scenario.node[3].appl  distance  ETV
vector 67  scenario.node[3].appl  relativeSpeed  ETV
vector 68  scenario.node[3].appl  nodeId  ETV
vector 72  scenario.node[3].appl  acceleration  ETV
vector 73  scenario.node[3].appl  controllerAcceleration  ETV
vector 69  scenario.node[3].appl  speed  ETV
vector 70  scenario.node[3].appl  posx  ETV
vector 71  scenario.node[3].appl  posy  ETV
vector 88  scenario.node[4].appl  distance  ETV
vector 89  scenario.node[4].appl  relativeSpeed  ETV
vector 90  scenario.node[4].appl  nodeId  ETV
vector 94  scenario.node[4].appl  acceleration  ETV
vector 95  scenario.node[4].appl  controllerAcceleration  ETV
vector 91  scenario.node[4].appl  speed  ETV
vector 92  scenario.node[4].appl  posx  ETV
vector 93  scenario.node[4].appl  posy  ETV
vector 110  scenario.node[5].appl  distance  ETV
vector 111  scenario.node[5].appl  relativeSpeed  ETV
vector 112  scenario.node[5].appl  nodeId  ETV
vector 116  scenario.node[5].appl  acceleration  ETV
vector 117  scenario.node[5].appl  controllerAcceleration  ETV
vector 113  scenario.node[5].appl  speed  ETV
vector 114  scenario.node[5].appl  posx  ETV
vector 115  scenario.node[5].appl  posy  ETV
vector 132  scenario.node[6].appl  distance  ETV
vector 133  scenario.node[6].appl  relativeSpeed  ETV
vector 134  scenario.node[6].appl  nodeId  ETV
vector 138  scenario.node[6].appl  acceleration  ETV
vector 139  scenario.node[6].appl  controllerAcceleration  ETV
vector 135  scenario.node[6].appl  speed  ETV
vector 136  scenario.node[6].appl  posx  ETV
vector 137  scenario.node[6].appl  posy  ETV
vector 154  scenario.node[7].appl  distance  ETV
vector 155  scenario.node[7].appl  relativeSpeed  ETV
vector 156  scenario.node[7].appl  nodeId  ETV
vector 160  scenario.node[7].appl  acceleration  ETV
vector 161  scenario.node[7].appl  controllerAcceleration  ETV
vector 157  scenario.node[7].appl  speed  ETV
vector 158  scenario.node[7].appl  posx  ETV
vector 159  scenario.node[7].appl  posy  ETV
vector 80  scenario.node[3].prot  frontDelay  ETV
vector 78  scenario.node[3].prot  frontDelayId  ETV
vector 58  scenario.node[2].prot  frontDelay  ETV
vector 56  scenario.node[2].prot  frontDelayId  ETV
vector 168  scenario.node[7].prot  frontDelay  ETV
vector 166  scenario.node[7].prot  frontDelayId  ETV
vector 35  scenario.node[1].prot  leaderDelay  ETV
vector 33  scenario.node[1].prot  leaderDelayId  ETV
vector 36  scenario.node[1].prot  frontDelay  ETV
vector 34  scenario.node[1].prot  frontDelayId  ETV
vector 57  scenario.node[2].prot  leaderDelay  ETV
vector 55  scenario.node[2].prot  leaderDelayId  ETV
vector 79  scenario.node[3].prot  leaderDelay  ETV
vector 77  scenario.node[3].prot  leaderDelayId  ETV
vector 101  scenario.node[4].prot  leaderDelay  ETV
vector 99  scenario.node[4].prot  leaderDelayId  ETV
vector 123  scenario.node[5].prot  leaderDelay  ETV
vector 121  scenario.node[5].prot  leaderDelayId  ETV
vector 145  scenario.node[6].prot  leaderDelay  ETV
vector 143  scenario.node[6].prot  leaderDelayId  ETV
vector 167  scenario.node[7].prot  leaderDelay  ETV
vector 165  scenario.node[7].prot  leaderDelayId  ETV
vector 124  scenario.node[5].prot  frontDelay  ETV
vector 122  scenario.node[5].prot  frontDelayId  ETV
vector 102  scenario.node[4].prot  frontDelay  ETV
vector 100  scenario.node[4].prot  frontDelayId  ETV
vector 146  scenario.node[6].prot  frontDelay  ETV
vector 144  scenario.node[6].prot  frontDelayId  ETV
vector 8  scenario.node[0].prot  nodeId  ETV
vector 9  scenario.node[0].prot  busyTime  ETV
vector 10  scenario.node[0].prot  collisions  ETV
vector 30  scenario.node[1].prot  nodeId  ETV
vector 31  scenario.node[1].prot  busyTime  ETV
vector 32  scenario.node[1].prot  collisions  ETV
vector 52  scenario.node[2].prot  nodeId  ETV
vector 53  scenario.node[2].prot  busyTime  ETV
vector 54  scenario.node[2].prot  collisions  ETV
vector 74  scenario.node[3].prot  nodeId  ETV
vector 75  scenario.node[3].prot  busyTime  ETV
vector 76  scenario.node[3].prot  collisions  ETV
vector 96  scenario.node[4].prot  nodeId  ETV
vector 97  scenario.node[4].prot  busyTime  ETV
vector 98  scenario.node[4].prot  collisions  ETV
vector 118  scenario.node[5].prot  nodeId  ETV
vector 119  scenario.node[5].prot  busyTime  ETV
vector 120  scenario.node[5].prot  collisions  ETV
vector 140  scenario.node[6].prot  nodeId  ETV
vector 141  scenario.node[6].prot  busyTime  ETV
vector 142  scenario.node[6].prot  collisions  ETV
vector 162  scenario.node[7].prot  nodeId  ETV
vector 163  scenario.node[7].prot  busyTime  ETV
vector 164  scenario.node[7].prot  collisions  ETV
7	11250 13855 232 328174 1.11 59.91 589 -1.5 1.5 -14.445957496355 993.24092342393
6	25105 18568 232 328174 1.11 59.91 589 -1.4722746795719 1.4513434175793 -12.507252200722 675.29835178084
5	43673 12081 232 328174 1.11 59.91 589 36.55 36.55 21527.95 786846.5725
4	55754 17908 232 328174 1.11 59.91 589 151.16208725002 1462.1448846145 475938.67186513 468989991.32
3	73662 17918 232 328174 1.11 59.91 589 20.932410304178 24.18693697487 13131.616571188 293209.28872176
1	91580 9725 232 328174 1.11 59.91 589 0 0 0 0
0	101305 10314 232 328174 1.11 59.91 589 -1 -1 -589 589
2	111619 9725 232 328174 1.11 59.91 589 0 0 0 0
10	121344 858 5102 328596 2 60 59 0 0 0 0
9	122202 1154 5102 328596 2 60 59 0.022969 0.02625 1.545469 0.040493199961
8	123356 799 5102 328596 2 60 59 0 0 0 0
29	124155 19616 233 328175 1.11 59.91 589 -1.512971653161 1.5129648406034 0.80384019234648 465.05977932502
28	143771 19640 233 328175 1.11 59.91 589 -1.4840815549782 1.4595456972579 0.71246909768696 318.66611755251
27	163411 12670 233 328175 1.11 59.91 589 36.55 36.55 21527.95 786846.5725
26	176081 18503 233 328175 1.11 59.91 589 134.66208724976 1454.9570958908 467866.38388608 457546333.96719
25	194584 18502 233 328175 1.11 59.91 589 20.919656023424 24.193048776825 13225.197030014 297229.83913285
23	213086 19664 233 328175 1.11 59.91 589 -2.1678873627479 1.2662728803269 -93.455386304387 312.70352946973
22	232750 18489 233 328175 1.11 59.91 589 2.0651519397563 14.699067652234 5718.1595882308 64576.058216146
24	251239 10314 233 328175 1.11 59.91 589 1 1 589 589
36	261553 23701 1032 328418 1.254912256559 59.954921050119 588 0.099908282116 0.100090542379 58.800021334625 5.880005290241
35	285254 23701 1032 328418 1.254912256559 59.954921050119 588 0.099908282116 0.100090542379 58.800021334625 5.880005290241
34	308955 16119 1032 328418 1.254912256559 59.954921050119 588 1 1 588 588
33	325074 16119 1032 328418 1.254912256559 59.954921050119 588 1 1 588 588
32	341193 858 5103 328597 2 60 59 0 0 0 0
31	342051 1213 5103 328597 2 60 59 0.022969 0.02625 1.545469 0.040493199961
30	343264 858 5103 328597 2 60 59 1 1 59 59
51	344122 19626 234 328176 1.11 59.91 589 -1.4952754276974 1.4970992253949 1.2468642051248 455.55296263801
50	363748 19651 234 328176 1.11 59.91 589 -1.4761121262076 1.4494360539672 1.2520021149651 318.20133773529
49	383399 12670 234 328176 1.11 59.91 589 36.55 36.55 21527.95 786846.5725
48	396069 18481 234 328176 1.11 59.91 589 118.16208724976 1446.045218023 459370.84670729 445287801.56139
47	414550 18494 234 328176 1.11 59.91 589 20.926519530235 24.187787287741 13301.097291742 300706.94087442
45	433044 19953 234 328176 1.11 59.91 589 -0.47709016463984 0.039108600523193 -75.907386418706 26.469812962661
44	452997 18483 234 328176 1.11 59.91 589 4.9129747099694 12.573511447775 6141.0551840198 68709.588609356
46	471480 10314 234 328176 1.11 59.91 589 2 2 1178 2356
58	481794 23692 900 328286 1.229658651141 59.929654706207 588 0.099998910442 0.100012549715 58.799995596131 5.8799991235567
57	505486 23712 1038 328424 1.254912311597 59.954921079839 588 0.099908281982 0.100090542395 58.800021309307 5.8800052851774
56	529198 16117 900 328286 1.229658651141 59.929654706207 588 2 2 1176 2352
55	545315 16117 1038 328424 1.254912311597 59.954921079839 588 2 2 1176 2352
54	561432 858 5104 328598 2 60 59 0 0 0 0
53	562290 1213 5104 328598 2 60 59 0.022969 0.02625 1.545469 0.040493199961
52	563503 858 5104 328598 2 60 59 2 2 118 236
73	564361 19555 235 328177 1.11 59.91 589 -1.4890877726071 1.4891493071983 2.1278061820348 445.51959035659
72	583916 19587 235 328177 1.11 59.91 589 -1.4634887681481 1.4362581121663 2.2275439745101 314.6801317018
71	603503 12670 235 328177 1.11 59.91 589 36.55 36.55 21527.95 786846.5725
70	616173 18502 235 328177 1.11 59.91 589 101.66208724976 1436.7868851041 450703.79569471 432892872.84644
69	634675 18492 235 328177 1.11 59.91 589 20.936076032114 24.174492691682 13373.548247696 304059.89879169
67	653167 20055 235 328177 1.11 59.91 589 -0.42438656144931 0.020412778302017 -72.463475975763 22.550773408136
66	673222 18464 235 328177 1.11 59.91 589 5.2603006214119 12.549361268972 6312.5000316982 71462.194220762
68	691686 10314 235 328177 1.11 59.91 589 3 3 1767 5301
80	702000 23700 832 328218 1.213905596103 59.913901677637 588 0.099998910444 0.100012543111 58.799995622599 5.8799991288461
79	725700 23681 1044 328430 1.254912366635 59.954921110708 588 0.099908281847 0.100090542404 58.800021285138 5.8800052803436
78	749381 16119 832 328218 1.213905596103 59.913901677637 588 3 3 1764 5292
77	765500 16099 1044 328430 1.254912366635 59.954921110708 588 3 3 1764 5292
76	781599 858 5105 328599 2 60 59 0 0 0 0
75	782457 1213 5105 328599 2 60 59 0.022968 0.02625 1.545468 0.040493154024
74	783670 858 5105 328599 2 60 59 3 3 177 531
95	784528 19512 236 328178 1.11 59.91 589 -1.4821537235279 1.4817587915637 3.4131764176889 436.91329397348
94	804040 19552 236 328178 1.11 59.91 589 -1.4527427959731 1.4261913666939 3.6131121013668 311.60295425104
93	823592 12670 236 328178 1.11 59.91 589 36.55 36.55 21527.95 786846.5725
92	836262 18476 236 328178 1.11 59.91 589 85.162087249756 1427.0901672811 441878.00878731 420393604.21387
91	854738 18482 236 328178 1.11 59.91 589 20.944795183802 24.175450812857 13441.629711379 307240.02370895
89	873220 20088 236 328178 1.11 59.91 589 -0.37047287467534 0.014563178165659 -68.103739122325 19.552013511745
88	893308 18498 236 328178 1.11 59.91 589 5.6995060961624 12.526830225126 6471.1485366743 74111.066194091
90	911806 10314 236 328178 1.11 59.91 589 4 4 2356 9424
102	922120 24294 1246 328641 1.303562861978 60.003558423878 588 0.099998908546 0.100012545554 58.799995102965 5.8799990249179
101	946414 24309 1050 328436 1.254912421673 59.954921143035 588 0.099908281724 0.100090542407 58.800021262427 5.8800052758014
100	970723 16706 1246 328641 1.303562861978 60.003558423878 588 4 4 2352 9408
99	987429 16123 1050 328436 1.254912421673 59.954921143035 588 4 4 2352 9408
98	1003552 858 5106 328600 2 60 59 0 0 0 0
97	1004410 1213 5106 328600 2 60 59 0.022969 0.02625 1.545469 0.040493199961
96	1005623 858 5106 328600 2 60 59 4 4 236 944
117	1006481 20079 237 328179 1.11 59.91 589 -1.4896672527834 1.4914667565449 5.1278421356704 450.36404197403
116	1026560 20118 237 328179 1.11 59.91 589 -1.4475618900939 1.4230601841668 5.3716155129056 310.59363640112
115	1046678 13259 237 328179 1.11 59.91 589 36.55 36.55 21527.95 786846.5725
114	1059937 19087 237 328179 1.11 59.91 589 68.662087249756 1416.8708292637 432909.84464195 407830777.29285
113	1079024 19087 237 328179 1.11 59.91 589 20.94949010901 24.393412509994 13504.497946124 310202.14207391
111	1098111 20552 237 328179 1.11 59.91 589 -0.33301600784521 0.039951939150246 -62.904365865987 16.986985355016
110	1118663 19061 237 328179 1.11 59.91 589 6.2228665148359 12.534684346463 6613.4215100552 76570.789632227
112	1137724 10903 237 328179 1.11 59.91 589 5 5 2945 14725
124	1148627 24266 1172 328558 1.26574880694 59.965757393312 588 0.09999890858 0.100012551905 58.800008127437 5.8800016299631
123	1172893 24282 1056 328442 1.254912476711 59.954921177099 588 0.099908281618 0.1000905424 58.800021241453 5.8800052716066
122	1197175 16694 1172 328558 1.26574880694 59.965757393312 588 5 5 2940 14700
121	1213869 16700 1056 328442 1.254912476711 59.954921177099 588 5 5 2940 14700
120	1230569 917 5107 328601 2 60 59 0 0 0 0
119	1231486 1272 5107 328601 2 60 59 0.022968 0.02625 1.545468 0.040493154024
118	1232758 917 5107 328601 2 60 59 5 5 295 1475
139	1233675 20044 238 328180 1.11 59.91 589 -1.480758296688 1.4812783436527 7.0431355953449 441.44382534113
138	1253719 20073 238 328180 1.11 59.91 589 -1.4503739124528 1.4264948344792 7.4307283105835 314.34325238973
137	1273792 13259 238 328180 1.11 59.91 589 36.55 36.55 21527.95 786846.5725
136	1287051 19097 238 328180 1.11 59.91 589 52.162085342407 1406.0686783158 423811.928425 395240609.8078
135	1306148 19087 238 328180 1.11 59.91 589 20.944169357337 24.571315119661 13561.548725913 312915.15722077
133	1325235 20669 238 328180 1.11 59.91 589 -0.30590424132517 0.022609933368162 -57.104495944529 14.403718931526
132	1345904 19094 238 328180 1.11 59.91 589 6.8062879128711 12.51429244127 6743.0572325477 78923.647202711
134	1364998 10903 238 328180 1.11 59.91 589 6 6 3534 21204
146	1375901 24290 1312 328707 1.305158972054 60.005154493884 588 0.099998908419 0.10001255152 58.799995062895 5.8799990169123
145	1400191 24296 1062 328448 1.254912531749 59.954921213104 588 0.099908281531 0.100090542399 58.80002122242 5.8800052678
144	1424487 16718 1312 328707 1.305158972054 60.005154493884 588 6 6 3528 21168
143	1441205 16720 1062 328448 1.254912531749 59.954921213104 588 6 6 3528 21168
142	1457925 917 5108 328602 2 60 59 0 0 0 0
141	1458842 1272 5108 328602 2 60 59 0.022969 0.02625 1.545469 0.040493199961
140	1460114 917 5108 328602 2 60 59 6 6 354 2124
161	1461031 20059 239 328181 1.11 59.91 589 -1.4938774155305 1.4938088569438 9.3381987362649 456.71612483617
160	1481090 20096 239 328181 1.11 59.91 589 -1.4564665615204 1.4312228041572 9.717250670888 316.62480581587
159	1501186 13259 239 328181 1.11 59.91 589 36.55 36.55 21527.95 786846.5725
158	1514445 19087 239 328181 1.11 59.91 589 35.662085342407 1394.6553411832 414598.94195059 382664497.57443
157	1533532 19073 239 328181 1.11 59.91 589 20.939644626439 24.720027617549 13612.495357187 315357.03380314
155	1552605 20835 239 328181 1.11 59.91 589 -0.28445987555004 0.011006394565374 -51.02093855721 12.155891663495
154	1573440 19083 239 328181 1.11 59.91 589 7.4179130488974 12.525696400509 6858.0054070391 81108.39445843
156	1592523 10903 239 328181 1.11 59.91 589 7 7 4123 28861
168	1603426 24294 975 328361 1.254433926331 59.954429877574 588 0.099998910157 0.100012546694 58.799995492308 5.8799991027904
167	1627720 24263 1068 328454 1.254912586788 59.954921251144 588 0.099908281461 0.100090542406 58.800021205421 5.8800052644002
166	1651983 16713 975 328361 1.254433926331 59.954429877574 588 7 7 4116 28812
165	1668696 16687 1068 328454 1.254912586788 59.954921251144 588 7 7 4116 28812
164	1685383 917 5109 328603 2 60 59 0 0 0 0
163	1686300 1272 5109 328603 2 60 59 0.022969 0.02625 1.545469 0.040493199961
162	1687572 917 5109 328603 2 60 59 7 7 413 2891
