file 1684169 1501509445                                         
version 2
run SinusoidalJammingAttack-41-20170731-15:56:51-114949
attr CACCSpacing 5
attr attackAcc -30
attr attackPos 7
attr attackSpeed 150
attr attackStart 30
attr attacker 1
attr beaconInterval 0.1
attr configname SinusoidalJammingAttack
attr controller 2
attr datetime 20170731-15:56:51
attr experiment SinusoidalJammingAttack
attr fakeAcc "(1 == 4)"
attr fakePos "(1 == 2)"
attr fakeSpeed "(1 == 3)"
attr inifile omnetpp_41.ini
attr iterationvars "$leaderSpeed=80, $controller=2, $CACCSpacing=5, $sController=\"PLOEG\", $attacker=1, $attackStart=30, $attackSpeed=150, $attackPos=7, $attackAcc=-30, $0=2, $1=0.5, $nCars=8, $platoonSize=8, $nLanes=1, $beaconInterval=0.1, $priority=2, $packetSize=200, $ploegH=0.5, $leaderHeadway=1.2, $fakeSpeed=(1 == 3), $fakeAcc=(1 == 4), $fakePos=(1 == 2)"
attr iterationvarsf leaderSpeed=80,controller=2,CACCSpacing=5,sController=PLOEG,attacker=1,attackStart=30,attackSpeed=150,attackPos=7,attackAcc=-30,2,0.5,nCars=8,platoonSize=8,nLanes=1,beaconInterval=0.1,priority=2,packetSize=200,ploegH=0.5,leaderHeadway=1.2,fakeSpeed=(1_==_3),fakeAcc=(1_==_4),fakePos=(1_==_2)-
attr leaderHeadway 1.2
attr leaderSpeed 80
attr measurement "$leaderSpeed=80, $controller=2, $CACCSpacing=5, $sController=\"PLOEG\", $attacker=1, $attackStart=30, $attackSpeed=150, $attackPos=7, $attackAcc=-30, $0=2, $1=0.5, $nCars=8, $platoonSize=8, $nLanes=1, $beaconInterval=0.1, $priority=2, $packetSize=200, $ploegH=0.5, $leaderHeadway=1.2, $fakeSpeed=(1 == 3), $fakeAcc=(1 == 4), $fakePos=(1 == 2)"
attr nCars 8
attr nLanes 1
attr network scenario
attr packetSize 200
attr platoonSize 8
attr ploegH 0.5
attr priority 2
attr processid 114949
attr repetition 1
attr replication #1
attr resultdir results
attr runnumber 41
attr sController "\"PLOEG\""
attr seedset 1
param **.coreDebug false
param **.debug false
param **.headway 0.1s
param **.numberOfCars 8
param **.numberOfCarsPerPlatoon 8
param **.numberOfLanes 1
param **.numericController 2
param **.traffic.nCars 8
param **.traffic.nLanes 1
param **.traffic.platoonInsertDistance 2m
param **.traffic.platoonInsertHeadway 0.5s
param **.traffic.platoonInsertSpeed 80kmph
param **.traffic.platoonInsertTime "1 s"
param **.traffic.platoonLeaderHeadway 1.2s
param **.traffic.platoonSize 8
param **.traffic.platooningVType "\"vtypeauto\""
param **.traffic_type "\"PlatoonsTrafficManager\""
param *.**.nic.mac1609_4.bitrate 6Mbps
param *.**.nic.mac1609_4.txPower 100mW
param *.**.nic.mac1609_4.useServiceChannel false
param *.**.nic.phy80211p.analogueModels "xmldoc(\"config.xml\")"
param *.**.nic.phy80211p.decider "xmldoc(\"config.xml\")"
param *.**.nic.phy80211p.maxTXPower 100mW
param *.**.nic.phy80211p.sensitivity -94dBm
param *.**.nic.phy80211p.thermalNoise -95dBm
param *.**.nic.phy80211p.usePropagationDelay true
param *.**.nic.phy80211p.useThermalNoise true
param *.annotations.draw false
param *.connectionManager.alpha 2.0
param *.connectionManager.carrierFrequency "5.890e9 Hz"
param *.connectionManager.pMax 100mW
param *.connectionManager.sat -94dBm
param *.connectionManager.sendDirect true
param *.manager.autoShutdown true
param *.manager.commandLine "\"sumo --remote-port $port --seed $seed --configuration-file $configFile\""
param *.manager.configFile "\"./sumocfg/freeway.sumo.cfg\""
param *.manager.host "\"localhost\""
param *.manager.margin 25
param *.manager.moduleDisplayString "\"\""
param *.manager.moduleName "\"node\""
param *.manager.moduleType "\"Car\""
param *.manager.updateInterval 0.01s
param *.node[*].appl.attackStart 30s
param *.node[*].appl.attackerType 1
param *.node[*].appl.simulationDuration "60 s"
param *.node[*].appl_type "\"SimplePlatooningApp\""
param *.node[*].helper.nCars 8
param *.node[*].helper.nLanes 1
param *.node[*].helper.platoonSize 8
param *.node[*].helper_type "\"PositionHelper\""
param *.node[*].mobility.x 0
param *.node[*].mobility.y 0
param *.node[*].mobility.z 1.895
param *.node[*].prot.attackStart 30s
param *.node[*].prot.attackerType 1
param *.node[*].prot.attackingNode 3
param *.node[*].prot.beaconingInterval 0.1s
param *.node[*].prot.fakeAcc "(1 == 4)"
param *.node[*].prot.fakePos "(1 == 2)"
param *.node[*].prot.fakeSpeed "(1 == 3)"
param *.node[*].prot.maliciousAcc "-30 mpss"
param *.node[*].prot.maliciousSpeed 150kmph
param *.node[*].prot.packetSize 200
param *.node[*].prot.priority 2
param *.node[*].prot.shiftX "7 m"
param *.node[*].prot.useControllerAcceleration true
param *.node[*].protocol_type "\"SimplePlatooningBeaconing\""
param *.node[*].scenario.accHeadway 0.1s
param *.node[*].scenario.caccC1 0.5
param *.node[*].scenario.caccOmegaN "0.2 Hz"
param *.node[*].scenario.caccSpacing 5m
param *.node[*].scenario.caccXi 1
param *.node[*].scenario.controller "\"PLOEG\""
param *.node[*].scenario.engineTau "0.5 s"
param *.node[*].scenario.leaderHeadway 1.2s
param *.node[*].scenario.leaderOscillationFrequency "0.2 Hz"
param *.node[*].scenario.leaderSpeed 80kmph
param *.node[*].scenario.oscillationAmplitude "10 kmph"
param *.node[*].scenario.ploegH 0.5s
param *.node[*].scenario.ploegKd 0.7
param *.node[*].scenario.ploegKp 0.2
param *.node[*].scenario.startOscillating "5 s"
param *.node[*].scenario.useRealisticEngine false
param *.node[*].scenario_type "\"SinusoidalScenario\""
param *.node[*].unicast.packetLossRate 0
param *.obstacles.debug false
param *.playgroundSizeX 65000m
param *.playgroundSizeY 25000m
param *.playgroundSizeZ 50m
param *.world.use2D false
param *.world.useTorus false

vector 0  scenario.node[0].appl  distance  ETV
vector 1  scenario.node[0].appl  relativeSpeed  ETV
vector 2  scenario.node[0].appl  nodeId  ETV
vector 6  scenario.node[0].appl  acceleration  ETV
vector 7  scenario.node[0].appl  controllerAcceleration  ETV
vector 3  scenario.node[0].appl  speed  ETV
vector 4  scenario.node[0].appl  posx  ETV
vector 5  scenario.node[0].appl  posy  ETV
vector 22  scenario.node[1].appl  distance  ETV
vector 23  scenario.node[1].appl  relativeSpeed  ETV
vector 24  scenario.node[1].appl  nodeId  ETV
vector 28  scenario.node[1].appl  acceleration  ETV
vector 29  scenario.node[1].appl  controllerAcceleration  ETV
vector 25  scenario.node[1].appl  speed  ETV
vector 26  scenario.node[1].appl  posx  ETV
vector 27  scenario.node[1].appl  posy  ETV
vector 44  scenario.node[2].appl  distance  ETV
vector 45  scenario.node[2].appl  relativeSpeed  ETV
vector 46  scenario.node[2].appl  nodeId  ETV
vector 50  scenario.node[2].appl  acceleration  ETV
vector 51  scenario.node[2].appl  controllerAcceleration  ETV
vector 47  scenario.node[2].appl  speed  ETV
vector 48  scenario.node[2].appl  posx  ETV
vector 49  scenario.node[2].appl  posy  ETV
vector 66  scenario.node[3].appl  distance  ETV
vector 67  scenario.node[3].appl  relativeSpeed  ETV
vector 68  scenario.node[3].appl  nodeId  ETV
vector 72  scenario.node[3].appl  acceleration  ETV
vector 73  scenario.node[3].appl  controllerAcceleration  ETV
vector 69  scenario.node[3].appl  speed  ETV
vector 70  scenario.node[3].appl  posx  ETV
vector 71  scenario.node[3].appl  posy  ETV
vector 88  scenario.node[4].appl  distance  ETV
vector 89  scenario.node[4].appl  relativeSpeed  ETV
vector 90  scenario.node[4].appl  nodeId  ETV
vector 94  scenario.node[4].appl  acceleration  ETV
vector 95  scenario.node[4].appl  controllerAcceleration  ETV
vector 91  scenario.node[4].appl  speed  ETV
vector 92  scenario.node[4].appl  posx  ETV
vector 93  scenario.node[4].appl  posy  ETV
vector 110  scenario.node[5].appl  distance  ETV
vector 111  scenario.node[5].appl  relativeSpeed  ETV
vector 112  scenario.node[5].appl  nodeId  ETV
vector 116  scenario.node[5].appl  acceleration  ETV
vector 117  scenario.node[5].appl  controllerAcceleration  ETV
vector 113  scenario.node[5].appl  speed  ETV
vector 114  scenario.node[5].appl  posx  ETV
vector 115  scenario.node[5].appl  posy  ETV
vector 132  scenario.node[6].appl  distance  ETV
vector 133  scenario.node[6].appl  relativeSpeed  ETV
vector 134  scenario.node[6].appl  nodeId  ETV
vector 138  scenario.node[6].appl  acceleration  ETV
vector 139  scenario.node[6].appl  controllerAcceleration  ETV
vector 135  scenario.node[6].appl  speed  ETV
vector 136  scenario.node[6].appl  posx  ETV
vector 137  scenario.node[6].appl  posy  ETV
vector 154  scenario.node[7].appl  distance  ETV
vector 155  scenario.node[7].appl  relativeSpeed  ETV
vector 156  scenario.node[7].appl  nodeId  ETV
vector 160  scenario.node[7].appl  acceleration  ETV
vector 161  scenario.node[7].appl  controllerAcceleration  ETV
vector 157  scenario.node[7].appl  speed  ETV
vector 158  scenario.node[7].appl  posx  ETV
vector 159  scenario.node[7].appl  posy  ETV
vector 58  scenario.node[2].prot  frontDelay  ETV
vector 56  scenario.node[2].prot  frontDelayId  ETV
vector 102  scenario.node[4].prot  frontDelay  ETV
vector 100  scenario.node[4].prot  frontDelayId  ETV
vector 146  scenario.node[6].prot  frontDelay  ETV
vector 144  scenario.node[6].prot  frontDelayId  ETV
vector 168  scenario.node[7].prot  frontDelay  ETV
vector 166  scenario.node[7].prot  frontDelayId  ETV
vector 124  scenario.node[5].prot  frontDelay  ETV
vector 122  scenario.node[5].prot  frontDelayId  ETV
vector 35  scenario.node[1].prot  leaderDelay  ETV
vector 33  scenario.node[1].prot  leaderDelayId  ETV
vector 36  scenario.node[1].prot  frontDelay  ETV
vector 34  scenario.node[1].prot  frontDelayId  ETV
vector 57  scenario.node[2].prot  leaderDelay  ETV
vector 55  scenario.node[2].prot  leaderDelayId  ETV
vector 79  scenario.node[3].prot  leaderDelay  ETV
vector 77  scenario.node[3].prot  leaderDelayId  ETV
vector 101  scenario.node[4].prot  leaderDelay  ETV
vector 99  scenario.node[4].prot  leaderDelayId  ETV
vector 123  scenario.node[5].prot  leaderDelay  ETV
vector 121  scenario.node[5].prot  leaderDelayId  ETV
vector 145  scenario.node[6].prot  leaderDelay  ETV
vector 143  scenario.node[6].prot  leaderDelayId  ETV
vector 167  scenario.node[7].prot  leaderDelay  ETV
vector 165  scenario.node[7].prot  leaderDelayId  ETV
vector 80  scenario.node[3].prot  frontDelay  ETV
vector 78  scenario.node[3].prot  frontDelayId  ETV
vector 8  scenario.node[0].prot  nodeId  ETV
vector 9  scenario.node[0].prot  busyTime  ETV
vector 10  scenario.node[0].prot  collisions  ETV
vector 30  scenario.node[1].prot  nodeId  ETV
vector 31  scenario.node[1].prot  busyTime  ETV
vector 32  scenario.node[1].prot  collisions  ETV
vector 52  scenario.node[2].prot  nodeId  ETV
vector 53  scenario.node[2].prot  busyTime  ETV
vector 54  scenario.node[2].prot  collisions  ETV
vector 74  scenario.node[3].prot  nodeId  ETV
vector 75  scenario.node[3].prot  busyTime  ETV
vector 76  scenario.node[3].prot  collisions  ETV
vector 96  scenario.node[4].prot  nodeId  ETV
vector 97  scenario.node[4].prot  busyTime  ETV
vector 98  scenario.node[4].prot  collisions  ETV
vector 118  scenario.node[5].prot  nodeId  ETV
vector 119  scenario.node[5].prot  busyTime  ETV
vector 120  scenario.node[5].prot  collisions  ETV
vector 140  scenario.node[6].prot  nodeId  ETV
vector 141  scenario.node[6].prot  busyTime  ETV
vector 142  scenario.node[6].prot  collisions  ETV
vector 162  scenario.node[7].prot  nodeId  ETV
vector 163  scenario.node[7].prot  busyTime  ETV
vector 164  scenario.node[7].prot  collisions  ETV
7	11238 13855 232 328174 1.11 59.91 589 -1.5 1.5 -14.445957496355 993.24092342393
6	25093 18568 232 328174 1.11 59.91 589 -1.4722746795719 1.4513434175793 -12.507252200722 675.29835178084
5	43661 12081 232 328174 1.11 59.91 589 36.55 36.55 21527.95 786846.5725
4	55742 17902 232 328174 1.11 59.91 589 154.60539321926 1465.5881905837 477966.77908101 472274579.65333
3	73644 17918 232 328174 1.11 59.91 589 20.932410304178 24.18693697487 13131.616571188 293209.28872176
1	91562 9725 232 328174 1.11 59.91 589 0 0 0 0
0	101287 10314 232 328174 1.11 59.91 589 -1 -1 -589 589
2	111601 9725 232 328174 1.11 59.91 589 0 0 0 0
10	121326 858 5168 328662 2 60 59 0 0 0 0
9	122184 1154 5168 328662 2 60 59 0.023297 0.02625 1.545797 0.040508375209
8	123338 799 5168 328662 2 60 59 0 0 0 0
29	124137 19275 233 328175 1.11 59.91 589 -1.5589915445928 1.5498303260343 4.5005057428599 529.93066967269
28	143412 19340 233 328175 1.11 59.91 589 -1.4671854423909 1.3997532795166 6.2330056927063 381.77645282262
27	162752 12670 233 328175 1.11 59.91 589 36.55 36.55 21527.95 786846.5725
26	175422 18497 233 328175 1.11 59.91 589 137.49428634644 1452.9451509722 468968.08879448 458673701.36234
25	193919 18490 233 328175 1.11 59.91 589 21.045710107487 24.233429736858 13176.951532117 295110.00378908
23	212409 19338 233 328175 1.11 59.91 589 -3.0949612115213 1.8890479606779 -45.209888407659 613.70923395784
22	231747 18466 233 328175 1.11 59.91 589 7.0347541393623 14.51442480444 6643.5969857496 78254.387579473
24	250213 10314 233 328175 1.11 59.91 589 1 1 589 589
36	260527 23692 1238 328624 1.297802712299 59.997809509387 588 0.099998877281 0.100011943799 58.800005710314 5.880001149794
35	284219 23692 1238 328624 1.297802712299 59.997809509387 588 0.099998877281 0.100011943799 58.800005710314 5.880001149794
34	307911 16121 1238 328624 1.297802712299 59.997809509387 588 1 1 588 588
33	324032 16121 1238 328624 1.297802712299 59.997809509387 588 1 1 588 588
32	340153 858 5169 328663 2 60 59 0 0 0 0
31	341011 1213 5169 328663 2 60 59 0.023297 0.02625 1.545797 0.040508375209
30	342224 858 5169 328663 2 60 59 1 1 59 59
51	343082 19332 234 328176 1.11 59.91 589 -1.5234273780919 1.4627556844806 6.6926791110341 415.85075795453
50	362414 19389 234 328176 1.11 59.91 589 -1.3731568105538 1.2865878256328 5.9032314324266 303.57404350033
49	381803 12670 234 328176 1.11 59.91 589 36.55 36.55 21527.95 786846.5725
48	394473 18486 234 328176 1.11 59.91 589 120.38317184448 1435.5153610687 458846.88951414 442743983.7075
47	412959 18492 234 328176 1.11 59.91 589 21.159618907834 24.15128937782 13173.749468526 294913.22413929
45	431451 19581 234 328176 1.11 59.91 589 -0.6975417214868 0.65519765130224 3.1397335345159 82.03271542485
44	451032 18484 234 328176 1.11 59.91 589 12.549233316465 14.09458198582 7765.1352390724 102444.57953992
46	469516 10314 234 328176 1.11 59.91 589 2 2 1178 2356
58	479830 23697 832 328218 1.212435970303 59.912429797959 588 0.099998876958 0.100011942893 58.799992740882 5.8799985557674
57	503527 23700 1244 328630 1.297802769375 59.997809567534 588 0.099998877173 0.100011943656 58.800005711385 5.8800011500082
56	527227 16117 832 328218 1.212435970303 59.912429797959 588 2 2 1176 2352
55	543344 16112 1244 328630 1.297802769375 59.997809567534 588 2 2 1176 2352
54	559456 858 5170 328664 2 60 59 0 0 0 0
53	560314 1213 5170 328664 2 60 59 0.023296 0.02625 1.545796 0.040508328616
52	561527 858 5170 328664 2 60 59 2 2 118 236
73	562385 19370 235 328177 1.11 59.91 589 -1.43275962276 1.3375826066628 6.0750795184596 331.87749825402
72	581755 19435 235 328177 1.11 59.91 589 -1.2644131600069 1.2299228176104 3.6085021870147 243.01425626893
71	601190 12670 235 328177 1.11 59.91 589 36.55 36.55 21527.95 786846.5725
70	613860 18502 235 328177 1.11 59.91 589 103.27205734253 1418.1949689409 448726.96972383 427164813.65765
69	632362 18474 235 328177 1.11 59.91 589 21.254933701396 24.075296909539 13171.573888652 294774.38281189
67	650836 19612 235 328177 1.11 59.91 589 -0.64498598724035 0.62185677192916 2.1165475597455 65.570340102876
66	670448 18506 235 328177 1.11 59.91 589 12.601273356869 14.055001858676 7763.8762787054 102399.6354558
68	688954 10314 235 328177 1.11 59.91 589 3 3 1767 5301
80	699268 23711 1312 328701 1.307224826452 60.007218625376 588 0.099998877054 0.100011942248 58.79999271215 5.8799985500209
79	722979 23689 1250 328636 1.297802826452 59.997809625369 588 0.099998877054 0.100011943623 58.800005712143 5.8800011501598
78	746668 16115 1312 328701 1.307224826452 60.007218625376 588 3 3 1764 5292
77	762783 16105 1250 328636 1.297802826452 59.997809625369 588 3 3 1764 5292
76	778888 858 5171 328665 2 60 59 0 0 0 0
75	779746 1213 5171 328665 2 60 59 0.023297 0.02625 1.545797 0.040508375209
74	780959 858 5171 328665 2 60 59 3 3 177 531
95	781817 19443 236 328178 1.11 59.91 589 -1.3157130995825 1.2765762235847 3.4864507349392 263.67668452433
94	801260 19518 236 328178 1.11 59.91 589 -1.153941678843 1.1709852359715 0.56682226265252 193.77538929463
93	820778 12670 236 328178 1.11 59.91 589 36.55 36.55 21527.95 786846.5725
92	833448 18501 236 328178 1.11 59.91 589 86.160950469971 1401.0335812904 438607.55697454 411933906.18822
91	851949 18498 236 328178 1.11 59.91 589 21.339522458687 24.002504669631 13170.963981146 294713.86187889
89	870447 19564 236 328178 1.11 59.91 589 -0.58958689262505 0.59248644245061 0.57382248375714 52.234656087421
88	890011 18492 236 328178 1.11 59.91 589 12.646575487929 14.017254940846 7763.4005511413 102377.77871303
90	908503 10314 236 328178 1.11 59.91 589 4 4 2356 9424
102	918817 24292 902 328282 1.235040084456 59.935033912999 588 0.099998876752 0.100011942873 58.799992741769 5.8799985559447
101	943109 24283 1256 328642 1.297802883528 59.997809682694 588 0.09999887697 0.100011943685 58.800005712392 5.8800011502096
100	967392 16694 902 328282 1.235040084456 59.935033912999 588 4 4 2352 9408
99	984086 16111 1256 328642 1.297802883528 59.997809682694 588 4 4 2352 9408
98	1000197 858 5172 328666 2 60 59 0 0 0 0
97	1001055 1213 5172 328666 2 60 59 0.023297 0.02625 1.545797 0.040508375209
96	1002268 858 5172 328666 2 60 59 4 4 236 944
117	1003126 20083 237 328179 1.11 59.91 589 -1.1995099268978 1.2147925102308 0.26480128548395 210.28406830505
116	1023209 20143 237 328179 1.11 59.91 589 -1.0511925215251 1.1119530074872 -1.9910489301715 155.09605739246
115	1043352 13259 237 328179 1.11 59.91 589 36.55 36.55 21527.95 786846.5725
114	1056611 19100 237 328179 1.11 59.91 589 69.049839782715 1384.0126563128 428487.86357931 397049024.18228
113	1075711 19076 237 328179 1.11 59.91 589 21.416559055373 23.934663696326 13171.7773462 294723.35691089
111	1094787 20218 237 328179 1.11 59.91 589 -0.53713305203824 0.56254843819676 -0.81903327647691 41.670306938537
110	1115005 19092 237 328179 1.11 59.91 589 12.687746932141 13.98148944897 7763.709662533 102378.41596403
112	1134097 10903 237 328179 1.11 59.91 589 5 5 2945 14725
124	1145000 24287 1178 328558 1.297389483993 59.997383309578 588 0.099998876796 0.100011942263 58.799992738811 5.8799985553531
123	1169287 24304 1262 328648 1.297802940605 59.997809739538 588 0.099998876942 0.100011943798 58.800005712159 5.880001150163
122	1193591 16706 1178 328558 1.297389483993 59.997383309578 588 5 5 2940 14700
121	1210297 16710 1262 328648 1.297802940605 59.997809739538 588 5 5 2940 14700
120	1227007 917 5173 328667 2 60 59 0 0 0 0
119	1227924 1272 5173 328667 2 60 59 0.023297 0.02625 1.545797 0.040508375209
118	1229196 917 5173 328667 2 60 59 5 5 295 1475
139	1230113 20105 238 328180 1.11 59.91 589 -1.0923887420924 1.1521413857614 -2.3152632193782 167.88788708376
138	1250218 20162 238 328180 1.11 59.91 589 -0.95900141683316 1.0540556565335 -3.2815203969022 125.231872868
137	1270380 13259 238 328180 1.11 59.91 589 36.55 36.55 21527.95 786846.5725
136	1283639 19086 238 328180 1.11 59.91 589 51.93872718811 1367.0691669768 418367.38308061 382508793.03632
135	1302725 19077 238 328180 1.11 59.91 589 21.487107771518 23.871475568509 13173.41036395 294774.20034842
133	1321802 20250 238 328180 1.11 59.91 589 -0.48977944613483 0.53314892449173 -1.6131072609868 33.5309657576
132	1342052 19083 238 328180 1.11 59.91 589 12.725203034156 13.948140296507 7764.5131590604 102393.43067838
134	1361135 10903 238 328180 1.11 59.91 589 6 6 3534 21204
146	1372038 24285 970 328350 1.248713198609 59.948707026321 588 0.099998876751 0.100011941832 58.799992740938 5.8799985557785
145	1396323 24316 1268 328654 1.297802997681 59.99780979609 588 0.099998876967 0.100011943917 58.800005711635 5.8800011500582
144	1420639 16699 970 328350 1.248713198609 59.948707026321 588 6 6 3528 21168
143	1437338 16722 1268 328654 1.297802997681 59.99780979609 588 6 6 3528 21168
142	1454060 917 5174 328668 2 60 59 0 0 0 0
141	1454977 1272 5174 328668 2 60 59 0.023297 0.02625 1.545797 0.040508375209
140	1456249 917 5174 328668 2 60 59 6 6 354 2124
161	1457166 20143 239 328181 1.11 59.91 589 -0.99893996675121 1.092674910271 -3.523034313491 135.90381812997
160	1477309 20180 239 328181 1.11 59.91 589 -0.87860796868569 0.99915408092635 -3.1447639335777 102.30850259503
159	1497489 13259 239 328181 1.11 59.91 589 36.55 36.55 21527.95 786846.5725
158	1510748 19073 239 328181 1.11 59.91 589 34.827616024017 1350.1276306416 408246.00009179 368312959.7651
157	1529821 19067 239 328181 1.11 59.91 589 21.551120818933 23.813823068851 13175.112916536 294832.40924444
155	1548888 20245 239 328181 1.11 59.91 589 -0.4481723471331 0.50514304379602 -1.6697373820427 27.306045465581
154	1569133 19102 239 328181 1.11 59.91 589 12.759057031465 13.917927797714 7765.4170398702 102412.25326958
156	1588235 10903 239 328181 1.11 59.91 589 7 7 4123 28861
168	1599138 24257 1040 328420 1.263894255686 59.963888082829 588 0.099998876805 0.100011941881 58.799992740369 5.8799985556646
167	1623395 24288 1274 328660 1.297803054758 59.997809852599 588 0.099998877025 0.100011944013 58.800005711067 5.8800011499446
166	1647683 16682 1040 328420 1.263894255686 59.963888082829 588 7 7 4116 28812
165	1664365 16698 1274 328660 1.297803054758 59.997809852599 588 7 7 4116 28812
164	1681063 917 5175 328669 2 60 59 0 0 0 0
163	1681980 1272 5175 328669 2 60 59 0.023297 0.02625 1.545797 0.040508375209
162	1683252 917 5175 328669 2 60 59 7 7 413 2891
