file 1684525 1501509018                                         
version 2
run SinusoidalJammingAttack-17-20170731-15:49:46-84865
attr CACCSpacing 5
attr attackAcc -30
attr attackPos 7
attr attackSpeed 150
attr attackStart 30
attr attacker 1
attr beaconInterval 0.1
attr configname SinusoidalJammingAttack
attr controller 2
attr datetime 20170731-15:49:46
attr experiment SinusoidalJammingAttack
attr fakeAcc "(1 == 4)"
attr fakePos "(1 == 2)"
attr fakeSpeed "(1 == 3)"
attr inifile omnetpp_17.ini
attr iterationvars "$leaderSpeed=50, $controller=2, $CACCSpacing=5, $sController=\"PLOEG\", $attacker=1, $attackStart=30, $attackSpeed=150, $attackPos=7, $attackAcc=-30, $0=2, $1=0.5, $nCars=8, $platoonSize=8, $nLanes=1, $beaconInterval=0.1, $priority=2, $packetSize=200, $ploegH=0.5, $leaderHeadway=1.2, $fakeSpeed=(1 == 3), $fakeAcc=(1 == 4), $fakePos=(1 == 2)"
attr iterationvarsf leaderSpeed=50,controller=2,CACCSpacing=5,sController=PLOEG,attacker=1,attackStart=30,attackSpeed=150,attackPos=7,attackAcc=-30,2,0.5,nCars=8,platoonSize=8,nLanes=1,beaconInterval=0.1,priority=2,packetSize=200,ploegH=0.5,leaderHeadway=1.2,fakeSpeed=(1_==_3),fakeAcc=(1_==_4),fakePos=(1_==_2)-
attr leaderHeadway 1.2
attr leaderSpeed 50
attr measurement "$leaderSpeed=50, $controller=2, $CACCSpacing=5, $sController=\"PLOEG\", $attacker=1, $attackStart=30, $attackSpeed=150, $attackPos=7, $attackAcc=-30, $0=2, $1=0.5, $nCars=8, $platoonSize=8, $nLanes=1, $beaconInterval=0.1, $priority=2, $packetSize=200, $ploegH=0.5, $leaderHeadway=1.2, $fakeSpeed=(1 == 3), $fakeAcc=(1 == 4), $fakePos=(1 == 2)"
attr nCars 8
attr nLanes 1
attr network scenario
attr packetSize 200
attr platoonSize 8
attr ploegH 0.5
attr priority 2
attr processid 84865
attr repetition 2
attr replication #2
attr resultdir results
attr runnumber 17
attr sController "\"PLOEG\""
attr seedset 2
param **.coreDebug false
param **.debug false
param **.headway 0.1s
param **.numberOfCars 8
param **.numberOfCarsPerPlatoon 8
param **.numberOfLanes 1
param **.numericController 2
param **.traffic.nCars 8
param **.traffic.nLanes 1
param **.traffic.platoonInsertDistance 2m
param **.traffic.platoonInsertHeadway 0.5s
param **.traffic.platoonInsertSpeed 50kmph
param **.traffic.platoonInsertTime "1 s"
param **.traffic.platoonLeaderHeadway 1.2s
param **.traffic.platoonSize 8
param **.traffic.platooningVType "\"vtypeauto\""
param **.traffic_type "\"PlatoonsTrafficManager\""
param *.**.nic.mac1609_4.bitrate 6Mbps
param *.**.nic.mac1609_4.txPower 100mW
param *.**.nic.mac1609_4.useServiceChannel false
param *.**.nic.phy80211p.analogueModels "xmldoc(\"config.xml\")"
param *.**.nic.phy80211p.decider "xmldoc(\"config.xml\")"
param *.**.nic.phy80211p.maxTXPower 100mW
param *.**.nic.phy80211p.sensitivity -94dBm
param *.**.nic.phy80211p.thermalNoise -95dBm
param *.**.nic.phy80211p.usePropagationDelay true
param *.**.nic.phy80211p.useThermalNoise true
param *.annotations.draw false
param *.connectionManager.alpha 2.0
param *.connectionManager.carrierFrequency "5.890e9 Hz"
param *.connectionManager.pMax 100mW
param *.connectionManager.sat -94dBm
param *.connectionManager.sendDirect true
param *.manager.autoShutdown true
param *.manager.commandLine "\"sumo --remote-port $port --seed $seed --configuration-file $configFile\""
param *.manager.configFile "\"./sumocfg/freeway.sumo.cfg\""
param *.manager.host "\"localhost\""
param *.manager.margin 25
param *.manager.moduleDisplayString "\"\""
param *.manager.moduleName "\"node\""
param *.manager.moduleType "\"Car\""
param *.manager.updateInterval 0.01s
param *.node[*].appl.attackStart 30s
param *.node[*].appl.attackerType 1
param *.node[*].appl.simulationDuration "60 s"
param *.node[*].appl_type "\"SimplePlatooningApp\""
param *.node[*].helper.nCars 8
param *.node[*].helper.nLanes 1
param *.node[*].helper.platoonSize 8
param *.node[*].helper_type "\"PositionHelper\""
param *.node[*].mobility.x 0
param *.node[*].mobility.y 0
param *.node[*].mobility.z 1.895
param *.node[*].prot.attackStart 30s
param *.node[*].prot.attackerType 1
param *.node[*].prot.attackingNode 3
param *.node[*].prot.beaconingInterval 0.1s
param *.node[*].prot.fakeAcc "(1 == 4)"
param *.node[*].prot.fakePos "(1 == 2)"
param *.node[*].prot.fakeSpeed "(1 == 3)"
param *.node[*].prot.maliciousAcc "-30 mpss"
param *.node[*].prot.maliciousSpeed 150kmph
param *.node[*].prot.packetSize 200
param *.node[*].prot.priority 2
param *.node[*].prot.shiftX "7 m"
param *.node[*].prot.useControllerAcceleration true
param *.node[*].protocol_type "\"SimplePlatooningBeaconing\""
param *.node[*].scenario.accHeadway 0.1s
param *.node[*].scenario.caccC1 0.5
param *.node[*].scenario.caccOmegaN "0.2 Hz"
param *.node[*].scenario.caccSpacing 5m
param *.node[*].scenario.caccXi 1
param *.node[*].scenario.controller "\"PLOEG\""
param *.node[*].scenario.engineTau "0.5 s"
param *.node[*].scenario.leaderHeadway 1.2s
param *.node[*].scenario.leaderOscillationFrequency "0.2 Hz"
param *.node[*].scenario.leaderSpeed 50kmph
param *.node[*].scenario.oscillationAmplitude "10 kmph"
param *.node[*].scenario.ploegH 0.5s
param *.node[*].scenario.ploegKd 0.7
param *.node[*].scenario.ploegKp 0.2
param *.node[*].scenario.startOscillating "5 s"
param *.node[*].scenario.useRealisticEngine false
param *.node[*].scenario_type "\"SinusoidalScenario\""
param *.node[*].unicast.packetLossRate 0
param *.obstacles.debug false
param *.playgroundSizeX 65000m
param *.playgroundSizeY 25000m
param *.playgroundSizeZ 50m
param *.world.use2D false
param *.world.useTorus false

vector 0  scenario.node[0].appl  distance  ETV
vector 1  scenario.node[0].appl  relativeSpeed  ETV
vector 2  scenario.node[0].appl  nodeId  ETV
vector 6  scenario.node[0].appl  acceleration  ETV
vector 7  scenario.node[0].appl  controllerAcceleration  ETV
vector 3  scenario.node[0].appl  speed  ETV
vector 4  scenario.node[0].appl  posx  ETV
vector 5  scenario.node[0].appl  posy  ETV
vector 22  scenario.node[1].appl  distance  ETV
vector 23  scenario.node[1].appl  relativeSpeed  ETV
vector 24  scenario.node[1].appl  nodeId  ETV
vector 28  scenario.node[1].appl  acceleration  ETV
vector 29  scenario.node[1].appl  controllerAcceleration  ETV
vector 25  scenario.node[1].appl  speed  ETV
vector 26  scenario.node[1].appl  posx  ETV
vector 27  scenario.node[1].appl  posy  ETV
vector 44  scenario.node[2].appl  distance  ETV
vector 45  scenario.node[2].appl  relativeSpeed  ETV
vector 46  scenario.node[2].appl  nodeId  ETV
vector 50  scenario.node[2].appl  acceleration  ETV
vector 51  scenario.node[2].appl  controllerAcceleration  ETV
vector 47  scenario.node[2].appl  speed  ETV
vector 48  scenario.node[2].appl  posx  ETV
vector 49  scenario.node[2].appl  posy  ETV
vector 66  scenario.node[3].appl  distance  ETV
vector 67  scenario.node[3].appl  relativeSpeed  ETV
vector 68  scenario.node[3].appl  nodeId  ETV
vector 72  scenario.node[3].appl  acceleration  ETV
vector 73  scenario.node[3].appl  controllerAcceleration  ETV
vector 69  scenario.node[3].appl  speed  ETV
vector 70  scenario.node[3].appl  posx  ETV
vector 71  scenario.node[3].appl  posy  ETV
vector 88  scenario.node[4].appl  distance  ETV
vector 89  scenario.node[4].appl  relativeSpeed  ETV
vector 90  scenario.node[4].appl  nodeId  ETV
vector 94  scenario.node[4].appl  acceleration  ETV
vector 95  scenario.node[4].appl  controllerAcceleration  ETV
vector 91  scenario.node[4].appl  speed  ETV
vector 92  scenario.node[4].appl  posx  ETV
vector 93  scenario.node[4].appl  posy  ETV
vector 110  scenario.node[5].appl  distance  ETV
vector 111  scenario.node[5].appl  relativeSpeed  ETV
vector 112  scenario.node[5].appl  nodeId  ETV
vector 116  scenario.node[5].appl  acceleration  ETV
vector 117  scenario.node[5].appl  controllerAcceleration  ETV
vector 113  scenario.node[5].appl  speed  ETV
vector 114  scenario.node[5].appl  posx  ETV
vector 115  scenario.node[5].appl  posy  ETV
vector 132  scenario.node[6].appl  distance  ETV
vector 133  scenario.node[6].appl  relativeSpeed  ETV
vector 134  scenario.node[6].appl  nodeId  ETV
vector 138  scenario.node[6].appl  acceleration  ETV
vector 139  scenario.node[6].appl  controllerAcceleration  ETV
vector 135  scenario.node[6].appl  speed  ETV
vector 136  scenario.node[6].appl  posx  ETV
vector 137  scenario.node[6].appl  posy  ETV
vector 154  scenario.node[7].appl  distance  ETV
vector 155  scenario.node[7].appl  relativeSpeed  ETV
vector 156  scenario.node[7].appl  nodeId  ETV
vector 160  scenario.node[7].appl  acceleration  ETV
vector 161  scenario.node[7].appl  controllerAcceleration  ETV
vector 157  scenario.node[7].appl  speed  ETV
vector 158  scenario.node[7].appl  posx  ETV
vector 159  scenario.node[7].appl  posy  ETV
vector 168  scenario.node[7].prot  frontDelay  ETV
vector 166  scenario.node[7].prot  frontDelayId  ETV
vector 146  scenario.node[6].prot  frontDelay  ETV
vector 144  scenario.node[6].prot  frontDelayId  ETV
vector 35  scenario.node[1].prot  leaderDelay  ETV
vector 33  scenario.node[1].prot  leaderDelayId  ETV
vector 36  scenario.node[1].prot  frontDelay  ETV
vector 34  scenario.node[1].prot  frontDelayId  ETV
vector 57  scenario.node[2].prot  leaderDelay  ETV
vector 55  scenario.node[2].prot  leaderDelayId  ETV
vector 79  scenario.node[3].prot  leaderDelay  ETV
vector 77  scenario.node[3].prot  leaderDelayId  ETV
vector 101  scenario.node[4].prot  leaderDelay  ETV
vector 99  scenario.node[4].prot  leaderDelayId  ETV
vector 123  scenario.node[5].prot  leaderDelay  ETV
vector 121  scenario.node[5].prot  leaderDelayId  ETV
vector 145  scenario.node[6].prot  leaderDelay  ETV
vector 143  scenario.node[6].prot  leaderDelayId  ETV
vector 167  scenario.node[7].prot  leaderDelay  ETV
vector 165  scenario.node[7].prot  leaderDelayId  ETV
vector 102  scenario.node[4].prot  frontDelay  ETV
vector 100  scenario.node[4].prot  frontDelayId  ETV
vector 80  scenario.node[3].prot  frontDelay  ETV
vector 78  scenario.node[3].prot  frontDelayId  ETV
vector 124  scenario.node[5].prot  frontDelay  ETV
vector 122  scenario.node[5].prot  frontDelayId  ETV
vector 58  scenario.node[2].prot  frontDelay  ETV
vector 56  scenario.node[2].prot  frontDelayId  ETV
vector 8  scenario.node[0].prot  nodeId  ETV
vector 9  scenario.node[0].prot  busyTime  ETV
vector 10  scenario.node[0].prot  collisions  ETV
vector 30  scenario.node[1].prot  nodeId  ETV
vector 31  scenario.node[1].prot  busyTime  ETV
vector 32  scenario.node[1].prot  collisions  ETV
vector 52  scenario.node[2].prot  nodeId  ETV
vector 53  scenario.node[2].prot  busyTime  ETV
vector 54  scenario.node[2].prot  collisions  ETV
vector 74  scenario.node[3].prot  nodeId  ETV
vector 75  scenario.node[3].prot  busyTime  ETV
vector 76  scenario.node[3].prot  collisions  ETV
vector 96  scenario.node[4].prot  nodeId  ETV
vector 97  scenario.node[4].prot  busyTime  ETV
vector 98  scenario.node[4].prot  collisions  ETV
vector 118  scenario.node[5].prot  nodeId  ETV
vector 119  scenario.node[5].prot  busyTime  ETV
vector 120  scenario.node[5].prot  collisions  ETV
vector 140  scenario.node[6].prot  nodeId  ETV
vector 141  scenario.node[6].prot  busyTime  ETV
vector 142  scenario.node[6].prot  collisions  ETV
vector 162  scenario.node[7].prot  nodeId  ETV
vector 163  scenario.node[7].prot  busyTime  ETV
vector 164  scenario.node[7].prot  collisions  ETV
7	11236 13860 232 328174 1.11 59.91 589 -1.5 1.5 -14.445969899918 993.24092361736
6	25096 18587 232 328174 1.11 59.91 589 -1.472274679513 1.4513434175798 -12.507264912644 675.29835211523
5	43683 12081 232 328174 1.11 59.91 589 36.55 36.55 21527.95 786846.5725
4	55764 17910 232 328174 1.11 59.91 589 126.89329872118 947.87609721912 317339.35608429 204023311.44887
3	73674 17901 232 328174 1.11 59.91 589 12.599076970844 15.853603639796 8223.2832500118 115251.79065057
1	91575 9725 232 328174 1.11 59.91 589 0 0 0 0
0	101300 10314 232 328174 1.11 59.91 589 -1 -1 -589 589
2	111614 9725 232 328174 1.11 59.91 589 0 0 0 0
10	121339 858 5168 328662 2 60 59 0 0 0 0
9	122197 1154 5168 328662 2 60 59 0.023297 0.02625 1.545797 0.040508375209
8	123351 799 5168 328662 2 60 59 0 0 0 0
29	124150 19276 233 328175 1.11 59.91 589 -1.5368749871319 1.5234354465343 4.51418584602 517.0808531664
28	143426 19388 233 328175 1.11 59.91 589 -1.4452178804923 1.3764490870219 6.2332325373829 373.07617347251
27	162814 12670 233 328175 1.11 59.91 589 36.55 36.55 21527.95 786846.5725
26	175484 18491 233 328175 1.11 59.91 589 113.94885597229 939.33450461787 310779.73621951 197562778.72222
25	193975 18511 233 328175 1.11 59.91 589 12.730263982508 15.884421678413 8267.966034304 116372.1217914
23	212486 19363 233 328175 1.11 59.91 589 -3.0781968834927 1.8889085414466 -44.557711643056 604.09740946828
22	231849 18501 233 328175 1.11 59.91 589 2.9340455830726 10.343626751456 4204.5135204648 33242.88224367
24	250350 10314 233 328175 1.11 59.91 589 1 1 589 589
36	260664 23686 1034 328420 1.262217338518 59.962220590143 588 0.099998913425 0.100011990865 58.800002201541 5.8800004477576
35	284350 23686 1034 328420 1.262217338518 59.962220590143 588 0.099998913425 0.100011990865 58.800002201541 5.8800004477576
34	308036 16106 1034 328420 1.262217338518 59.962220590143 588 1 1 588 588
33	324142 16106 1034 328420 1.262217338518 59.962220590143 588 1 1 588 588
32	340248 858 5169 328663 2 60 59 0 0 0 0
31	341106 1213 5169 328663 2 60 59 0.023296 0.02625 1.545796 0.040508328616
30	342319 858 5169 328663 2 60 59 1 1 59 59
51	343177 19349 234 328176 1.11 59.91 589 -1.5020342158272 1.4359875013924 6.699652003005 406.20111098323
50	362526 19399 234 328176 1.11 59.91 589 -1.3544328151898 1.2691205235518 5.9034871282442 296.27165297732
49	381925 12670 234 328176 1.11 59.91 589 36.55 36.55 21527.95 786846.5725
48	394595 18488 234 328176 1.11 59.91 589 101.00441322327 926.07138118747 303113.06564452 189580662.48471
47	413083 18485 234 328176 1.11 59.91 589 12.840697491456 15.802685327945 8264.7639251262 116229.59039591
45	431568 19554 234 328176 1.11 59.91 589 -0.68794286044842 0.6429171453069 3.1397768523501 80.022708050691
44	451122 18488 234 328176 1.11 59.91 589 8.390643118848 9.9189776416811 5310.6065328047 47952.689589718
46	469610 10314 234 328176 1.11 59.91 589 2 2 1178 2356
58	479924 23704 1312 328707 1.30259672712 60.002599985429 588 0.099998912788 0.100011995533 58.800002208225 5.8800004490948
57	503628 23709 1040 328426 1.262217381696 59.962220634389 588 0.099998913404 0.100011990882 58.800002202609 5.8800004479712
56	527337 16112 1312 328707 1.30259672712 60.002599985429 588 2 2 1176 2352
55	543449 16106 1040 328426 1.262217381696 59.962220634389 588 2 2 1176 2352
54	559555 858 5170 328664 2 60 59 0 0 0 0
53	560413 1213 5170 328664 2 60 59 0.023297 0.02625 1.545797 0.040508375209
52	561626 858 5170 328664 2 60 59 2 2 118 236
73	562484 19399 235 328177 1.11 59.91 589 -1.4075543327505 1.3171442530709 6.0649381107173 322.41041275051
72	581883 19486 235 328177 1.11 59.91 589 -1.2452155917131 1.2129290986069 3.6070732864941 236.72637203
71	601369 12670 235 328177 1.11 59.91 589 36.55 36.55 21527.95 786846.5725
70	614039 18496 235 328177 1.11 59.91 589 88.059966659546 912.91819183707 295447.63972471 181799858.61464
69	632535 18502 235 328177 1.11 59.91 589 12.934654973884 15.726275936437 8262.5936497691 116127.81332678
67	651037 19602 235 328177 1.11 59.91 589 -0.63471135531953 0.61272515912581 2.1112404858757 63.853743135893
66	670639 18499 235 328177 1.11 59.91 589 8.4415289446485 9.8801623874646 5309.3825143051 47919.099650932
68	689138 10314 235 328177 1.11 59.91 589 3 3 1767 5301
80	699452 23693 1176 328556 1.28787351123 59.987876766149 588 0.099998913137 0.100011995449 58.800002204835 5.8800004484167
79	723145 23704 1046 328432 1.262217424874 59.962220678302 588 0.099998913314 0.100011990993 58.800002203344 5.8800004481182
78	746849 16114 1176 328556 1.28787351123 59.987876766149 588 3 3 1764 5292
77	762963 16119 1046 328432 1.262217424874 59.962220678302 588 3 3 1764 5292
76	779082 858 5171 328665 2 60 59 0 0 0 0
75	779940 1213 5171 328665 2 60 59 0.023297 0.02625 1.545797 0.040508375209
74	781153 858 5171 328665 2 60 59 3 3 177 531
95	782011 19459 236 328178 1.11 59.91 589 -1.2975792652197 1.2601803190676 3.4877321588135 257.76846679583
94	801470 19582 236 328178 1.11 59.91 589 -1.1384636437374 1.157150708123 0.56536662743358 189.54243842397
93	821052 12670 236 328178 1.11 59.91 589 36.55 36.55 21527.95 786846.5725
92	833722 18490 236 328178 1.11 59.91 589 75.115523910522 899.92256019411 287782.7193925 174218921.79747
91	852212 18478 236 328178 1.11 59.91 589 13.015831046781 15.655658876506 8261.9746524881 116078.62463515
89	870690 19585 236 328178 1.11 59.91 589 -0.58148810032839 0.58490807587645 0.58292654814634 51.063738161597
88	890275 18499 236 328178 1.11 59.91 589 8.4853927879623 9.8434222325775 5308.9079522665 47901.591499465
90	908774 10314 236 328178 1.11 59.91 589 4 4 2356 9424
102	919088 24278 1108 328488 1.276579468052 59.976582721712 588 0.09999891321 0.100011995759 58.800002203576 5.880000448165
101	943366 24288 1052 328438 1.262217468052 59.962220721702 588 0.09999891321 0.100011991133 58.800002203566 5.8800004481626
100	967654 16694 1108 328488 1.276579468052 59.976582721712 588 4 4 2352 9408
99	984348 16120 1052 328438 1.262217468052 59.962220721702 588 4 4 2352 9408
98	1000468 858 5172 328666 2 60 59 0 0 0 0
97	1001326 1213 5172 328666 2 60 59 0.023297 0.02625 1.545797 0.040508375209
96	1002539 858 5172 328666 2 60 59 4 4 236 944
117	1003397 20110 237 328179 1.11 59.91 589 -1.1848235693185 1.2009658280073 0.25954583241258 206.08793639292
116	1023507 20160 237 328179 1.11 59.91 589 -1.0372259769479 1.10034845718 -1.9996212254959 152.03513470491
115	1043667 13259 237 328179 1.11 59.91 589 36.55 36.55 21527.95 786846.5725
114	1056926 19090 237 328179 1.11 59.91 589 62.171077346802 887.06827729627 280117.52328022 166836422.29599
113	1076016 19080 237 328179 1.11 59.91 589 13.089952662217 15.589243190727 8262.7875434501 116075.39654956
111	1095096 20227 237 328179 1.11 59.91 589 -0.53004514274496 0.55634121951696 -0.81854462828468 40.856811875095
110	1115323 19073 237 328179 1.11 59.91 589 8.5248228219204 9.8087404003468 5309.2123700992 47899.83786371
112	1134396 10903 237 328179 1.11 59.91 589 5 5 2945 14725
124	1145299 24268 1244 328624 1.297503597586 59.997506852515 588 0.099998912952 0.100011995101 58.800002204845 5.8800004484187
123	1169567 24297 1058 328444 1.26221751123 59.962220764622 588 0.099998913131 0.100011991255 58.800002203308 5.880000448111
122	1193864 16693 1244 328624 1.297503597586 59.997506852515 588 5 5 2940 14700
121	1210557 16711 1058 328444 1.26221751123 59.962220764622 588 5 5 2940 14700
120	1227268 917 5173 328667 2 60 59 0 0 0 0
119	1228185 1272 5173 328667 2 60 59 0.023297 0.02625 1.545797 0.040508375209
118	1229457 917 5173 328667 2 60 59 5 5 295 1475
139	1230374 20135 238 328180 1.11 59.91 589 -1.0795226888704 1.1397616993674 -2.3245419167107 164.56838674106
138	1250509 20143 238 328180 1.11 59.91 589 -0.94671686332983 1.0437453515534 -3.2904037722226 122.8016504329
137	1270652 13259 238 328180 1.11 59.91 589 36.55 36.55 21527.95 786846.5725
136	1283911 19092 238 328180 1.11 59.91 589 49.22663269043 874.29192810483 272451.53589292 159651467.93924
135	1303003 19087 238 328180 1.11 59.91 589 13.158844833343 15.526526301514 8264.4252779467 116099.58113175
133	1322090 20214 238 328180 1.11 59.91 589 -0.48340271690784 0.52761046509811 -1.6177382844043 32.873100611171
132	1342304 19099 238 328180 1.11 59.91 589 8.5614230078227 9.7756757976847 5310.0201419938 47908.352329757
134	1361403 10903 238 328180 1.11 59.91 589 6 6 3534 21204
146	1372306 24299 970 328350 1.247595122628 59.947598401864 588 0.09999891243 0.100011995284 58.800002229152 5.88000045328
145	1396605 24286 1064 328450 1.262217554408 59.96222080726 588 0.099998913099 0.10001199134 58.800002202768 5.880000448003
144	1420891 16703 970 328350 1.247595122628 59.947598401864 588 6 6 3528 21168
143	1437594 16695 1064 328450 1.262217554408 59.96222080726 588 6 6 3528 21168
142	1454289 917 5174 328668 2 60 59 0 0 0 0
141	1455206 1272 5174 328668 2 60 59 0.023297 0.02625 1.545797 0.040508375209
140	1456478 917 5174 328668 2 60 59 6 6 354 2124
161	1457395 20185 239 328181 1.11 59.91 589 -0.98715397978875 1.081832163852 -3.5361732854801 133.38480700481
160	1477580 20230 239 328181 1.11 59.91 589 -0.86778443758337 0.98956789064779 -3.1490078663865 100.24963716077
159	1497810 13259 239 328181 1.11 59.91 589 36.55 36.55 21527.95 786846.5725
158	1511069 19077 239 328181 1.11 59.91 589 36.282188987732 861.51723260586 264784.64286581 152663909.31272
157	1530146 19082 239 328181 1.11 59.91 589 13.221875487189 15.468800457965 8266.1297309016 116129.70776219
155	1549228 20231 239 328181 1.11 59.91 589 -0.44267531565502 0.49995643618677 -1.6715489171314 26.740111967196
154	1569459 19087 239 328181 1.11 59.91 589 8.5948108419337 9.7451961815717 5310.9271161617 47919.762941652
156	1588546 10903 239 328181 1.11 59.91 589 7 7 4123 28861
168	1599449 24289 832 328212 1.212136993094 59.912127274001 588 0.099998912495 0.100011995232 58.799989230823 5.8799978534727
167	1623738 24283 1070 328456 1.262217597586 59.96222084987 588 0.099998913109 0.10001199139 58.8000022022 5.8800004478894
166	1648021 16702 832 328212 1.212136993094 59.912127274001 588 7 7 4116 28812
165	1664723 16696 1070 328456 1.262217597586 59.96222084987 588 7 7 4116 28812
164	1681419 917 5175 328669 2 60 59 0 0 0 0
163	1682336 1272 5175 328669 2 60 59 0.023297 0.02625 1.545797 0.040508375209
162	1683608 917 5175 328669 2 60 59 7 7 413 2891
