file 1688875 1501509648                                         
version 2
run SinusoidalJammingAttack-55-20170731-16:00:19-79557
attr CACCSpacing 12.5
attr attackAcc -30
attr attackPos 7
attr attackSpeed 150
attr attackStart 30
attr attacker 1
attr beaconInterval 0.1
attr configname SinusoidalJammingAttack
attr controller 1
attr datetime 20170731-16:00:19
attr experiment SinusoidalJammingAttack
attr fakeAcc "(1 == 4)"
attr fakePos "(1 == 2)"
attr fakeSpeed "(1 == 3)"
attr inifile omnetpp_55.ini
attr iterationvars "$leaderSpeed=100, $controller=1, $CACCSpacing=12.5, $sController=\"CACC\", $attacker=1, $attackStart=30, $attackSpeed=150, $attackPos=7, $attackAcc=-30, $0=12.5, $1=0, $nCars=8, $platoonSize=8, $nLanes=1, $beaconInterval=0.1, $priority=2, $packetSize=200, $ploegH=0.5, $leaderHeadway=1.2, $fakeSpeed=(1 == 3), $fakeAcc=(1 == 4), $fakePos=(1 == 2)"
attr iterationvarsf leaderSpeed=100,controller=1,CACCSpacing=12.5,sController=CACC,attacker=1,attackStart=30,attackSpeed=150,attackPos=7,attackAcc=-30,12.5,0,nCars=8,platoonSize=8,nLanes=1,beaconInterval=0.1,priority=2,packetSize=200,ploegH=0.5,leaderHeadway=1.2,fakeSpeed=(1_==_3),fakeAcc=(1_==_4),fakePos=(1_==_2)-
attr leaderHeadway 1.2
attr leaderSpeed 100
attr measurement "$leaderSpeed=100, $controller=1, $CACCSpacing=12.5, $sController=\"CACC\", $attacker=1, $attackStart=30, $attackSpeed=150, $attackPos=7, $attackAcc=-30, $0=12.5, $1=0, $nCars=8, $platoonSize=8, $nLanes=1, $beaconInterval=0.1, $priority=2, $packetSize=200, $ploegH=0.5, $leaderHeadway=1.2, $fakeSpeed=(1 == 3), $fakeAcc=(1 == 4), $fakePos=(1 == 2)"
attr nCars 8
attr nLanes 1
attr network scenario
attr packetSize 200
attr platoonSize 8
attr ploegH 0.5
attr priority 2
attr processid 79557
attr repetition 0
attr replication #0
attr resultdir results
attr runnumber 55
attr sController "\"CACC\""
attr seedset 0
param **.coreDebug false
param **.debug false
param **.headway 0.1s
param **.numberOfCars 8
param **.numberOfCarsPerPlatoon 8
param **.numberOfLanes 1
param **.numericController 1
param **.traffic.nCars 8
param **.traffic.nLanes 1
param **.traffic.platoonInsertDistance 12.5m
param **.traffic.platoonInsertHeadway 0s
param **.traffic.platoonInsertSpeed 100kmph
param **.traffic.platoonInsertTime "1 s"
param **.traffic.platoonLeaderHeadway 1.2s
param **.traffic.platoonSize 8
param **.traffic.platooningVType "\"vtypeauto\""
param **.traffic_type "\"PlatoonsTrafficManager\""
param *.**.nic.mac1609_4.bitrate 6Mbps
param *.**.nic.mac1609_4.txPower 100mW
param *.**.nic.mac1609_4.useServiceChannel false
param *.**.nic.phy80211p.analogueModels "xmldoc(\"config.xml\")"
param *.**.nic.phy80211p.decider "xmldoc(\"config.xml\")"
param *.**.nic.phy80211p.maxTXPower 100mW
param *.**.nic.phy80211p.sensitivity -94dBm
param *.**.nic.phy80211p.thermalNoise -95dBm
param *.**.nic.phy80211p.usePropagationDelay true
param *.**.nic.phy80211p.useThermalNoise true
param *.annotations.draw false
param *.connectionManager.alpha 2.0
param *.connectionManager.carrierFrequency "5.890e9 Hz"
param *.connectionManager.pMax 100mW
param *.connectionManager.sat -94dBm
param *.connectionManager.sendDirect true
param *.manager.autoShutdown true
param *.manager.commandLine "\"sumo --remote-port $port --seed $seed --configuration-file $configFile\""
param *.manager.configFile "\"./sumocfg/freeway.sumo.cfg\""
param *.manager.host "\"localhost\""
param *.manager.margin 25
param *.manager.moduleDisplayString "\"\""
param *.manager.moduleName "\"node\""
param *.manager.moduleType "\"Car\""
param *.manager.updateInterval 0.01s
param *.node[*].appl.attackStart 30s
param *.node[*].appl.attackerType 1
param *.node[*].appl.simulationDuration "60 s"
param *.node[*].appl_type "\"SimplePlatooningApp\""
param *.node[*].helper.nCars 8
param *.node[*].helper.nLanes 1
param *.node[*].helper.platoonSize 8
param *.node[*].helper_type "\"PositionHelper\""
param *.node[*].mobility.x 0
param *.node[*].mobility.y 0
param *.node[*].mobility.z 1.895
param *.node[*].prot.attackStart 30s
param *.node[*].prot.attackerType 1
param *.node[*].prot.attackingNode 3
param *.node[*].prot.beaconingInterval 0.1s
param *.node[*].prot.fakeAcc "(1 == 4)"
param *.node[*].prot.fakePos "(1 == 2)"
param *.node[*].prot.fakeSpeed "(1 == 3)"
param *.node[*].prot.maliciousAcc "-30 mpss"
param *.node[*].prot.maliciousSpeed 150kmph
param *.node[*].prot.packetSize 200
param *.node[*].prot.priority 2
param *.node[*].prot.shiftX "7 m"
param *.node[*].prot.useControllerAcceleration true
param *.node[*].protocol_type "\"SimplePlatooningBeaconing\""
param *.node[*].scenario.accHeadway 0.1s
param *.node[*].scenario.caccC1 0.5
param *.node[*].scenario.caccOmegaN "0.2 Hz"
param *.node[*].scenario.caccSpacing 12.5m
param *.node[*].scenario.caccXi 1
param *.node[*].scenario.controller "\"CACC\""
param *.node[*].scenario.engineTau "0.5 s"
param *.node[*].scenario.leaderHeadway 1.2s
param *.node[*].scenario.leaderOscillationFrequency "0.2 Hz"
param *.node[*].scenario.leaderSpeed 100kmph
param *.node[*].scenario.oscillationAmplitude "10 kmph"
param *.node[*].scenario.ploegH 0.5s
param *.node[*].scenario.ploegKd 0.7
param *.node[*].scenario.ploegKp 0.2
param *.node[*].scenario.startOscillating "5 s"
param *.node[*].scenario.useRealisticEngine false
param *.node[*].scenario_type "\"SinusoidalScenario\""
param *.node[*].unicast.packetLossRate 0
param *.obstacles.debug false
param *.playgroundSizeX 65000m
param *.playgroundSizeY 25000m
param *.playgroundSizeZ 50m
param *.world.use2D false
param *.world.useTorus false

vector 0  scenario.node[0].appl  distance  ETV
vector 1  scenario.node[0].appl  relativeSpeed  ETV
vector 2  scenario.node[0].appl  nodeId  ETV
vector 6  scenario.node[0].appl  acceleration  ETV
vector 7  scenario.node[0].appl  controllerAcceleration  ETV
vector 3  scenario.node[0].appl  speed  ETV
vector 4  scenario.node[0].appl  posx  ETV
vector 5  scenario.node[0].appl  posy  ETV
vector 22  scenario.node[1].appl  distance  ETV
vector 23  scenario.node[1].appl  relativeSpeed  ETV
vector 24  scenario.node[1].appl  nodeId  ETV
vector 28  scenario.node[1].appl  acceleration  ETV
vector 29  scenario.node[1].appl  controllerAcceleration  ETV
vector 25  scenario.node[1].appl  speed  ETV
vector 26  scenario.node[1].appl  posx  ETV
vector 27  scenario.node[1].appl  posy  ETV
vector 44  scenario.node[2].appl  distance  ETV
vector 45  scenario.node[2].appl  relativeSpeed  ETV
vector 46  scenario.node[2].appl  nodeId  ETV
vector 50  scenario.node[2].appl  acceleration  ETV
vector 51  scenario.node[2].appl  controllerAcceleration  ETV
vector 47  scenario.node[2].appl  speed  ETV
vector 48  scenario.node[2].appl  posx  ETV
vector 49  scenario.node[2].appl  posy  ETV
vector 66  scenario.node[3].appl  distance  ETV
vector 67  scenario.node[3].appl  relativeSpeed  ETV
vector 68  scenario.node[3].appl  nodeId  ETV
vector 72  scenario.node[3].appl  acceleration  ETV
vector 73  scenario.node[3].appl  controllerAcceleration  ETV
vector 69  scenario.node[3].appl  speed  ETV
vector 70  scenario.node[3].appl  posx  ETV
vector 71  scenario.node[3].appl  posy  ETV
vector 88  scenario.node[4].appl  distance  ETV
vector 89  scenario.node[4].appl  relativeSpeed  ETV
vector 90  scenario.node[4].appl  nodeId  ETV
vector 94  scenario.node[4].appl  acceleration  ETV
vector 95  scenario.node[4].appl  controllerAcceleration  ETV
vector 91  scenario.node[4].appl  speed  ETV
vector 92  scenario.node[4].appl  posx  ETV
vector 93  scenario.node[4].appl  posy  ETV
vector 110  scenario.node[5].appl  distance  ETV
vector 111  scenario.node[5].appl  relativeSpeed  ETV
vector 112  scenario.node[5].appl  nodeId  ETV
vector 116  scenario.node[5].appl  acceleration  ETV
vector 117  scenario.node[5].appl  controllerAcceleration  ETV
vector 113  scenario.node[5].appl  speed  ETV
vector 114  scenario.node[5].appl  posx  ETV
vector 115  scenario.node[5].appl  posy  ETV
vector 132  scenario.node[6].appl  distance  ETV
vector 133  scenario.node[6].appl  relativeSpeed  ETV
vector 134  scenario.node[6].appl  nodeId  ETV
vector 138  scenario.node[6].appl  acceleration  ETV
vector 139  scenario.node[6].appl  controllerAcceleration  ETV
vector 135  scenario.node[6].appl  speed  ETV
vector 136  scenario.node[6].appl  posx  ETV
vector 137  scenario.node[6].appl  posy  ETV
vector 154  scenario.node[7].appl  distance  ETV
vector 155  scenario.node[7].appl  relativeSpeed  ETV
vector 156  scenario.node[7].appl  nodeId  ETV
vector 160  scenario.node[7].appl  acceleration  ETV
vector 161  scenario.node[7].appl  controllerAcceleration  ETV
vector 157  scenario.node[7].appl  speed  ETV
vector 158  scenario.node[7].appl  posx  ETV
vector 159  scenario.node[7].appl  posy  ETV
vector 80  scenario.node[3].prot  frontDelay  ETV
vector 78  scenario.node[3].prot  frontDelayId  ETV
vector 58  scenario.node[2].prot  frontDelay  ETV
vector 56  scenario.node[2].prot  frontDelayId  ETV
vector 168  scenario.node[7].prot  frontDelay  ETV
vector 166  scenario.node[7].prot  frontDelayId  ETV
vector 35  scenario.node[1].prot  leaderDelay  ETV
vector 33  scenario.node[1].prot  leaderDelayId  ETV
vector 36  scenario.node[1].prot  frontDelay  ETV
vector 34  scenario.node[1].prot  frontDelayId  ETV
vector 57  scenario.node[2].prot  leaderDelay  ETV
vector 55  scenario.node[2].prot  leaderDelayId  ETV
vector 79  scenario.node[3].prot  leaderDelay  ETV
vector 77  scenario.node[3].prot  leaderDelayId  ETV
vector 101  scenario.node[4].prot  leaderDelay  ETV
vector 99  scenario.node[4].prot  leaderDelayId  ETV
vector 123  scenario.node[5].prot  leaderDelay  ETV
vector 121  scenario.node[5].prot  leaderDelayId  ETV
vector 145  scenario.node[6].prot  leaderDelay  ETV
vector 143  scenario.node[6].prot  leaderDelayId  ETV
vector 167  scenario.node[7].prot  leaderDelay  ETV
vector 165  scenario.node[7].prot  leaderDelayId  ETV
vector 124  scenario.node[5].prot  frontDelay  ETV
vector 122  scenario.node[5].prot  frontDelayId  ETV
vector 102  scenario.node[4].prot  frontDelay  ETV
vector 100  scenario.node[4].prot  frontDelayId  ETV
vector 146  scenario.node[6].prot  frontDelay  ETV
vector 144  scenario.node[6].prot  frontDelayId  ETV
vector 8  scenario.node[0].prot  nodeId  ETV
vector 9  scenario.node[0].prot  busyTime  ETV
vector 10  scenario.node[0].prot  collisions  ETV
vector 30  scenario.node[1].prot  nodeId  ETV
vector 31  scenario.node[1].prot  busyTime  ETV
vector 32  scenario.node[1].prot  collisions  ETV
vector 52  scenario.node[2].prot  nodeId  ETV
vector 53  scenario.node[2].prot  busyTime  ETV
vector 54  scenario.node[2].prot  collisions  ETV
vector 74  scenario.node[3].prot  nodeId  ETV
vector 75  scenario.node[3].prot  busyTime  ETV
vector 76  scenario.node[3].prot  collisions  ETV
vector 96  scenario.node[4].prot  nodeId  ETV
vector 97  scenario.node[4].prot  busyTime  ETV
vector 98  scenario.node[4].prot  collisions  ETV
vector 118  scenario.node[5].prot  nodeId  ETV
vector 119  scenario.node[5].prot  busyTime  ETV
vector 120  scenario.node[5].prot  collisions  ETV
vector 140  scenario.node[6].prot  nodeId  ETV
vector 141  scenario.node[6].prot  busyTime  ETV
vector 142  scenario.node[6].prot  collisions  ETV
vector 162  scenario.node[7].prot  nodeId  ETV
vector 163  scenario.node[7].prot  busyTime  ETV
vector 164  scenario.node[7].prot  collisions  ETV
7	11256 13860 232 328174 1.11 59.91 589 -1.5 1.5 -14.445974034379 993.24092368185
6	25116 18594 232 328174 1.11 59.91 589 -1.4722746794938 1.4513434175793 -12.50726914995 675.29835222675
5	43710 12081 232 328174 1.11 59.91 589 36.55 36.55 21527.95 786846.5725
4	55791 17901 232 328174 1.11 59.91 589 151.71764297459 1789.367108517 572469.22840376 688192391.60806
3	73692 17905 232 328174 1.11 59.91 589 26.487965859734 29.742492528104 16403.83880962 457295.15275867
1	91597 9725 232 328174 1.11 59.91 589 0 0 0 0
0	101322 10314 232 328174 1.11 59.91 589 -1 -1 -589 589
2	111636 9725 232 328174 1.11 59.91 589 0 0 0 0
10	121361 858 5102 328596 2 60 59 0 0 0 0
9	122219 1154 5102 328596 2 60 59 0.022969 0.02625 1.545469 0.040493199961
8	123373 799 5102 328596 2 60 59 0 0 0 0
29	124172 19597 233 328175 1.11 59.91 589 -1.51297165279 1.51296484251 0.80382320399484 465.05977925582
28	143769 19659 233 328175 1.11 59.91 589 -1.4840815553274 1.4595456977474 0.71245213758147 318.66611767853
27	163428 12670 233 328175 1.11 59.91 589 36.55 36.55 21527.95 786846.5725
26	176098 18486 233 328175 1.11 59.91 589 135.21764297485 1782.1793197935 564396.94046416 674473030.39203
25	194584 18493 233 328175 1.11 59.91 589 26.475211577038 29.74860430989 16497.419268447 462355.48604418
23	213077 19709 233 328175 1.11 59.91 589 -2.1678873618524 1.2662728817098 -93.455386136238 312.70352938756
22	232786 18504 233 328175 1.11 59.91 589 2.0651519395371 14.699067644848 5718.1595487738 64576.057231062
24	251290 10314 233 328175 1.11 59.91 589 1 1 589 589
36	261604 23705 1032 328418 1.254912256559 59.954921050117 588 0.099908282116 0.100090542379 58.800021334623 5.8800052902406
35	285309 23705 1032 328418 1.254912256559 59.954921050117 588 0.099908282116 0.100090542379 58.800021334623 5.8800052902406
34	309014 16123 1032 328418 1.254912256559 59.954921050117 588 1 1 588 588
33	325137 16123 1032 328418 1.254912256559 59.954921050117 588 1 1 588 588
32	341260 858 5103 328597 2 60 59 0 0 0 0
31	342118 1213 5103 328597 2 60 59 0.022969 0.02625 1.545469 0.040493199961
30	343331 858 5103 328597 2 60 59 1 1 59 59
51	344189 19622 234 328176 1.11 59.91 589 -1.4952754263723 1.4970992082337 1.2468473690335 455.55296254997
50	363811 19679 234 328176 1.11 59.91 589 -1.4761121300058 1.4494360548792 1.2519851591119 318.20133784929
49	383490 12670 234 328176 1.11 59.91 589 36.55 36.55 21527.95 786846.5725
48	396160 18497 234 328176 1.11 59.91 589 118.71764297485 1773.267441926 555901.40331017 659704077.66289
47	414657 18495 234 328176 1.11 59.91 589 26.482075081486 29.743342827976 16573.319530178 466675.92402763
45	433152 19989 234 328176 1.11 59.91 589 -0.47709016384359 0.039108606634183 -75.907386252056 26.469812869332
44	453141 18477 234 328176 1.11 59.91 589 4.9129747096608 12.573511309269 6141.0551592291 68709.587993371
46	471618 10314 234 328176 1.11 59.91 589 2 2 1178 2356
58	481932 23699 900 328286 1.229658651141 59.929654706205 588 0.099998910442 0.100012549715 58.799995596129 5.8799991235563
57	505631 23716 1038 328424 1.254912311597 59.954921079837 588 0.099908281982 0.100090542395 58.800021309305 5.880005285177
56	529347 16124 900 328286 1.229658651141 59.929654706205 588 2 2 1176 2352
55	545471 16121 1038 328424 1.254912311597 59.954921079837 588 2 2 1176 2352
54	561592 858 5104 328598 2 60 59 0 0 0 0
53	562450 1213 5104 328598 2 60 59 0.022969 0.02625 1.545469 0.040493199961
52	563663 858 5104 328598 2 60 59 2 2 118 236
73	564521 19565 235 328177 1.11 59.91 589 -1.4890877726353 1.4891492873218 2.1277893959425 445.51959028669
72	584086 19620 235 328177 1.11 59.91 589 -1.4634887750208 1.436258113484 2.2275270212837 314.68013183206
71	603706 12670 235 328177 1.11 59.91 589 36.55 36.55 21527.95 786846.5725
70	616376 18506 235 328177 1.11 59.91 589 102.21764297485 1764.0091090077 547234.35232341 644711278.47767
69	634882 18488 235 328177 1.11 59.91 589 26.491631580125 29.730048242857 16645.770486139 470833.89256726
67	653370 20097 235 328177 1.11 59.91 589 -0.4243865606667 0.020412765752095 -72.463475812932 22.550773295427
66	673467 18456 235 328177 1.11 59.91 589 5.2603006207589 12.549361152881 6312.5000058748 71462.193580817
68	691923 10314 235 328177 1.11 59.91 589 3 3 1767 5301
80	702237 23696 832 328218 1.213905596103 59.913901677635 588 0.099998910444 0.100012543111 58.799995622597 5.8799991288457
79	725933 23674 1044 328430 1.254912366635 59.954921110706 588 0.099908281847 0.100090542404 58.800021285136 5.8800052803432
78	749607 16115 832 328218 1.213905596103 59.913901677635 588 3 3 1764 5292
77	765722 16092 1044 328430 1.254912366635 59.954921110706 588 3 3 1764 5292
76	781814 858 5105 328599 2 60 59 0 0 0 0
75	782672 1213 5105 328599 2 60 59 0.022968 0.02625 1.545468 0.040493154024
74	783885 858 5105 328599 2 60 59 3 3 177 531
95	784743 19522 236 328178 1.11 59.91 589 -1.4821537214798 1.4817587934172 3.4131601001694 436.91329384747
94	804265 19583 236 328178 1.11 59.91 589 -1.452742805564 1.426191368445 3.6130951716892 311.6029543181
93	823848 12670 236 328178 1.11 59.91 589 36.55 36.55 21527.95 786846.5725
92	836518 18495 236 328178 1.11 59.91 589 85.717642974854 1754.3123911861 538408.56545205 629530966.80538
91	855013 18490 236 328178 1.11 59.91 589 26.5003507274 29.731006364404 16713.851949835 474770.47819249
89	873503 20144 236 328178 1.11 59.91 589 -0.37047287358974 0.014563171124944 -68.103738965705 19.552013373653
88	893647 18482 236 328178 1.11 59.91 589 5.6995060948748 12.52683005832 6471.1485006343 74111.065300826
90	912129 10314 236 328178 1.11 59.91 589 4 4 2356 9424
102	922443 24301 1246 328641 1.303562861978 60.003558423876 588 0.099998908546 0.100012545554 58.799995102963 5.8799990249175
101	946744 24312 1050 328436 1.254912421673 59.954921143033 588 0.099908281724 0.100090542407 58.800021262425 5.880005275801
100	971056 16713 1246 328641 1.303562861978 60.003558423876 588 4 4 2352 9408
99	987769 16126 1050 328436 1.254912421673 59.954921143033 588 4 4 2352 9408
98	1003895 858 5106 328600 2 60 59 0 0 0 0
97	1004753 1213 5106 328600 2 60 59 0.022969 0.02625 1.545469 0.040493199961
96	1005966 858 5106 328600 2 60 59 4 4 236 944
117	1006824 20100 237 328179 1.11 59.91 589 -1.4896672557959 1.491466730242 5.1278250074054 450.36404188353
116	1026924 20144 237 328179 1.11 59.91 589 -1.4475619023361 1.4230601861424 5.3715985483727 310.59363651039
115	1047068 13259 237 328179 1.11 59.91 589 36.55 36.55 21527.95 786846.5725
114	1060327 19079 237 328179 1.11 59.91 589 69.217642974854 1744.0930531709 529440.40133675 614210463.22151
113	1079406 19068 237 328179 1.11 59.91 589 26.50504564781 29.948968059799 16776.720184602 478431.13250011
111	1098474 20558 237 328179 1.11 59.91 589 -0.33301600680768 0.039951926017622 -62.904365718791 16.986985201882
110	1119032 19073 237 328179 1.11 59.91 589 6.2228665126022 12.534684234323 6613.4214799988 76570.78889062
112	1138105 10903 237 328179 1.11 59.91 589 5 5 2945 14725
124	1149008 24260 1172 328558 1.26574880694 59.96575739331 588 0.09999890858 0.100012551905 58.800008127435 5.8800016299627
123	1173268 24281 1056 328442 1.254912476711 59.954921177097 588 0.099908281618 0.1000905424 58.800021241451 5.8800052716062
122	1197549 16686 1172 328558 1.26574880694 59.96575739331 588 5 5 2940 14700
121	1214235 16699 1056 328442 1.254912476711 59.954921177097 588 5 5 2940 14700
120	1230934 917 5107 328601 2 60 59 0 0 0 0
119	1231851 1272 5107 328601 2 60 59 0.022968 0.02625 1.545468 0.040493154024
118	1233123 917 5107 328601 2 60 59 5 5 295 1475
139	1234040 20056 238 328180 1.11 59.91 589 -1.4807582962645 1.4812783344808 7.0431192715489 441.44382530971
138	1254096 20103 238 328180 1.11 59.91 589 -1.4503739259158 1.4264948364772 7.4307113741447 314.34325255752
137	1274199 13259 238 328180 1.11 59.91 589 36.55 36.55 21527.95 786846.5725
136	1287458 19088 238 328180 1.11 59.91 589 52.717641067505 1733.2909022266 520342.4851514 598791821.68492
135	1306546 19087 238 328180 1.11 59.91 589 26.49972489119 30.126870667481 16833.770964428 481778.04520116
133	1325633 20680 238 328180 1.11 59.91 589 -0.30590424010508 0.022609922899161 -57.104495811468 14.403718766661
132	1346313 19073 238 328180 1.11 59.91 589 6.806287909201 12.51429231887 6743.0572009502 78923.64642427
134	1365386 10903 238 328180 1.11 59.91 589 6 6 3534 21204
146	1376289 24289 1312 328707 1.305158972054 60.005154493882 588 0.099998908419 0.10001255152 58.799995062893 5.8799990169119
145	1400578 24286 1062 328448 1.254912531749 59.954921213102 588 0.099908281531 0.100090542399 58.800021222418 5.8800052677996
144	1424864 16717 1312 328707 1.305158972054 60.005154493882 588 6 6 3528 21168
143	1441581 16711 1062 328448 1.254912531749 59.954921213102 588 6 6 3528 21168
142	1458292 917 5108 328602 2 60 59 0 0 0 0
141	1459209 1272 5108 328602 2 60 59 0.022969 0.02625 1.545469 0.040493199961
140	1460481 917 5108 328602 2 60 59 6 6 354 2124
161	1461398 20095 239 328181 1.11 59.91 589 -1.4938774166663 1.4938088466905 9.3381817332801 456.71612499641
160	1481493 20130 239 328181 1.11 59.91 589 -1.4564665745688 1.4312228057829 9.7172336952816 316.62480617839
159	1501623 13259 239 328181 1.11 59.91 589 36.55 36.55 21527.95 786846.5725
158	1514882 19083 239 328181 1.11 59.91 589 36.217641067505 1721.8775650996 511129.49869542 583323734.26072
157	1533965 19076 239 328181 1.11 59.91 589 26.495200156365 30.275583163241 16884.717595757 484785.99546599
155	1553041 20809 239 328181 1.11 59.91 589 -0.28445987431947 0.011006377235613 -51.020938442944 12.155891501499
154	1573850 19060 239 328181 1.11 59.91 589 7.417913043332 12.525696319686 6858.0053886054 81108.394010075
156	1592910 10903 239 328181 1.11 59.91 589 7 7 4123 28861
168	1603813 24280 975 328361 1.254433926331 59.954429877572 588 0.099998910157 0.100012546694 58.799995492306 5.87999910279
167	1628093 24276 1068 328454 1.254912586788 59.954921251142 588 0.099908281461 0.100090542406 58.800021205419 5.8800052643998
166	1652369 16699 975 328361 1.254433926331 59.954429877572 588 7 7 4116 28812
165	1669068 16701 1068 328454 1.254912586788 59.954921251142 588 7 7 4116 28812
164	1685769 917 5109 328603 2 60 59 0 0 0 0
163	1686686 1272 5109 328603 2 60 59 0.022969 0.02625 1.545469 0.040493199961
162	1687958 917 5109 328603 2 60 59 7 7 413 2891
