file 1684406 1501510257                                         
version 2
run SinusoidalJammingAttack-92-20170731-16:10:20-10212
attr CACCSpacing 5
attr attackAcc -30
attr attackPos 7
attr attackSpeed 150
attr attackStart 30
attr attacker 1
attr beaconInterval 0.1
attr configname SinusoidalJammingAttack
attr controller 2
attr datetime 20170731-16:10:20
attr experiment SinusoidalJammingAttack
attr fakeAcc "(1 == 4)"
attr fakePos "(1 == 2)"
attr fakeSpeed "(1 == 3)"
attr inifile omnetpp_92.ini
attr iterationvars "$leaderSpeed=120, $controller=2, $CACCSpacing=5, $sController=\"PLOEG\", $attacker=1, $attackStart=30, $attackSpeed=150, $attackPos=7, $attackAcc=-30, $0=2, $1=0.5, $nCars=8, $platoonSize=8, $nLanes=1, $beaconInterval=0.1, $priority=2, $packetSize=200, $ploegH=0.5, $leaderHeadway=1.2, $fakeSpeed=(1 == 3), $fakeAcc=(1 == 4), $fakePos=(1 == 2)"
attr iterationvarsf leaderSpeed=120,controller=2,CACCSpacing=5,sController=PLOEG,attacker=1,attackStart=30,attackSpeed=150,attackPos=7,attackAcc=-30,2,0.5,nCars=8,platoonSize=8,nLanes=1,beaconInterval=0.1,priority=2,packetSize=200,ploegH=0.5,leaderHeadway=1.2,fakeSpeed=(1_==_3),fakeAcc=(1_==_4),fakePos=(1_==_2)-
attr leaderHeadway 1.2
attr leaderSpeed 120
attr measurement "$leaderSpeed=120, $controller=2, $CACCSpacing=5, $sController=\"PLOEG\", $attacker=1, $attackStart=30, $attackSpeed=150, $attackPos=7, $attackAcc=-30, $0=2, $1=0.5, $nCars=8, $platoonSize=8, $nLanes=1, $beaconInterval=0.1, $priority=2, $packetSize=200, $ploegH=0.5, $leaderHeadway=1.2, $fakeSpeed=(1 == 3), $fakeAcc=(1 == 4), $fakePos=(1 == 2)"
attr nCars 8
attr nLanes 1
attr network scenario
attr packetSize 200
attr platoonSize 8
attr ploegH 0.5
attr priority 2
attr processid 10212
attr repetition 2
attr replication #2
attr resultdir results
attr runnumber 92
attr sController "\"PLOEG\""
attr seedset 2
param **.coreDebug false
param **.debug false
param **.headway 0.1s
param **.numberOfCars 8
param **.numberOfCarsPerPlatoon 8
param **.numberOfLanes 1
param **.numericController 2
param **.traffic.nCars 8
param **.traffic.nLanes 1
param **.traffic.platoonInsertDistance 2m
param **.traffic.platoonInsertHeadway 0.5s
param **.traffic.platoonInsertSpeed 120kmph
param **.traffic.platoonInsertTime "1 s"
param **.traffic.platoonLeaderHeadway 1.2s
param **.traffic.platoonSize 8
param **.traffic.platooningVType "\"vtypeauto\""
param **.traffic_type "\"PlatoonsTrafficManager\""
param *.**.nic.mac1609_4.bitrate 6Mbps
param *.**.nic.mac1609_4.txPower 100mW
param *.**.nic.mac1609_4.useServiceChannel false
param *.**.nic.phy80211p.analogueModels "xmldoc(\"config.xml\")"
param *.**.nic.phy80211p.decider "xmldoc(\"config.xml\")"
param *.**.nic.phy80211p.maxTXPower 100mW
param *.**.nic.phy80211p.sensitivity -94dBm
param *.**.nic.phy80211p.thermalNoise -95dBm
param *.**.nic.phy80211p.usePropagationDelay true
param *.**.nic.phy80211p.useThermalNoise true
param *.annotations.draw false
param *.connectionManager.alpha 2.0
param *.connectionManager.carrierFrequency "5.890e9 Hz"
param *.connectionManager.pMax 100mW
param *.connectionManager.sat -94dBm
param *.connectionManager.sendDirect true
param *.manager.autoShutdown true
param *.manager.commandLine "\"sumo --remote-port $port --seed $seed --configuration-file $configFile\""
param *.manager.configFile "\"./sumocfg/freeway.sumo.cfg\""
param *.manager.host "\"localhost\""
param *.manager.margin 25
param *.manager.moduleDisplayString "\"\""
param *.manager.moduleName "\"node\""
param *.manager.moduleType "\"Car\""
param *.manager.updateInterval 0.01s
param *.node[*].appl.attackStart 30s
param *.node[*].appl.attackerType 1
param *.node[*].appl.simulationDuration "60 s"
param *.node[*].appl_type "\"SimplePlatooningApp\""
param *.node[*].helper.nCars 8
param *.node[*].helper.nLanes 1
param *.node[*].helper.platoonSize 8
param *.node[*].helper_type "\"PositionHelper\""
param *.node[*].mobility.x 0
param *.node[*].mobility.y 0
param *.node[*].mobility.z 1.895
param *.node[*].prot.attackStart 30s
param *.node[*].prot.attackerType 1
param *.node[*].prot.attackingNode 3
param *.node[*].prot.beaconingInterval 0.1s
param *.node[*].prot.fakeAcc "(1 == 4)"
param *.node[*].prot.fakePos "(1 == 2)"
param *.node[*].prot.fakeSpeed "(1 == 3)"
param *.node[*].prot.maliciousAcc "-30 mpss"
param *.node[*].prot.maliciousSpeed 150kmph
param *.node[*].prot.packetSize 200
param *.node[*].prot.priority 2
param *.node[*].prot.shiftX "7 m"
param *.node[*].prot.useControllerAcceleration true
param *.node[*].protocol_type "\"SimplePlatooningBeaconing\""
param *.node[*].scenario.accHeadway 0.1s
param *.node[*].scenario.caccC1 0.5
param *.node[*].scenario.caccOmegaN "0.2 Hz"
param *.node[*].scenario.caccSpacing 5m
param *.node[*].scenario.caccXi 1
param *.node[*].scenario.controller "\"PLOEG\""
param *.node[*].scenario.engineTau "0.5 s"
param *.node[*].scenario.leaderHeadway 1.2s
param *.node[*].scenario.leaderOscillationFrequency "0.2 Hz"
param *.node[*].scenario.leaderSpeed 120kmph
param *.node[*].scenario.oscillationAmplitude "10 kmph"
param *.node[*].scenario.ploegH 0.5s
param *.node[*].scenario.ploegKd 0.7
param *.node[*].scenario.ploegKp 0.2
param *.node[*].scenario.startOscillating "5 s"
param *.node[*].scenario.useRealisticEngine false
param *.node[*].scenario_type "\"SinusoidalScenario\""
param *.node[*].unicast.packetLossRate 0
param *.obstacles.debug false
param *.playgroundSizeX 65000m
param *.playgroundSizeY 25000m
param *.playgroundSizeZ 50m
param *.world.use2D false
param *.world.useTorus false

vector 0  scenario.node[0].appl  distance  ETV
vector 1  scenario.node[0].appl  relativeSpeed  ETV
vector 2  scenario.node[0].appl  nodeId  ETV
vector 6  scenario.node[0].appl  acceleration  ETV
vector 7  scenario.node[0].appl  controllerAcceleration  ETV
vector 3  scenario.node[0].appl  speed  ETV
vector 4  scenario.node[0].appl  posx  ETV
vector 5  scenario.node[0].appl  posy  ETV
vector 22  scenario.node[1].appl  distance  ETV
vector 23  scenario.node[1].appl  relativeSpeed  ETV
vector 24  scenario.node[1].appl  nodeId  ETV
vector 28  scenario.node[1].appl  acceleration  ETV
vector 29  scenario.node[1].appl  controllerAcceleration  ETV
vector 25  scenario.node[1].appl  speed  ETV
vector 26  scenario.node[1].appl  posx  ETV
vector 27  scenario.node[1].appl  posy  ETV
vector 44  scenario.node[2].appl  distance  ETV
vector 45  scenario.node[2].appl  relativeSpeed  ETV
vector 46  scenario.node[2].appl  nodeId  ETV
vector 50  scenario.node[2].appl  acceleration  ETV
vector 51  scenario.node[2].appl  controllerAcceleration  ETV
vector 47  scenario.node[2].appl  speed  ETV
vector 48  scenario.node[2].appl  posx  ETV
vector 49  scenario.node[2].appl  posy  ETV
vector 66  scenario.node[3].appl  distance  ETV
vector 67  scenario.node[3].appl  relativeSpeed  ETV
vector 68  scenario.node[3].appl  nodeId  ETV
vector 72  scenario.node[3].appl  acceleration  ETV
vector 73  scenario.node[3].appl  controllerAcceleration  ETV
vector 69  scenario.node[3].appl  speed  ETV
vector 70  scenario.node[3].appl  posx  ETV
vector 71  scenario.node[3].appl  posy  ETV
vector 88  scenario.node[4].appl  distance  ETV
vector 89  scenario.node[4].appl  relativeSpeed  ETV
vector 90  scenario.node[4].appl  nodeId  ETV
vector 94  scenario.node[4].appl  acceleration  ETV
vector 95  scenario.node[4].appl  controllerAcceleration  ETV
vector 91  scenario.node[4].appl  speed  ETV
vector 92  scenario.node[4].appl  posx  ETV
vector 93  scenario.node[4].appl  posy  ETV
vector 110  scenario.node[5].appl  distance  ETV
vector 111  scenario.node[5].appl  relativeSpeed  ETV
vector 112  scenario.node[5].appl  nodeId  ETV
vector 116  scenario.node[5].appl  acceleration  ETV
vector 117  scenario.node[5].appl  controllerAcceleration  ETV
vector 113  scenario.node[5].appl  speed  ETV
vector 114  scenario.node[5].appl  posx  ETV
vector 115  scenario.node[5].appl  posy  ETV
vector 132  scenario.node[6].appl  distance  ETV
vector 133  scenario.node[6].appl  relativeSpeed  ETV
vector 134  scenario.node[6].appl  nodeId  ETV
vector 138  scenario.node[6].appl  acceleration  ETV
vector 139  scenario.node[6].appl  controllerAcceleration  ETV
vector 135  scenario.node[6].appl  speed  ETV
vector 136  scenario.node[6].appl  posx  ETV
vector 137  scenario.node[6].appl  posy  ETV
vector 154  scenario.node[7].appl  distance  ETV
vector 155  scenario.node[7].appl  relativeSpeed  ETV
vector 156  scenario.node[7].appl  nodeId  ETV
vector 160  scenario.node[7].appl  acceleration  ETV
vector 161  scenario.node[7].appl  controllerAcceleration  ETV
vector 157  scenario.node[7].appl  speed  ETV
vector 158  scenario.node[7].appl  posx  ETV
vector 159  scenario.node[7].appl  posy  ETV
vector 168  scenario.node[7].prot  frontDelay  ETV
vector 166  scenario.node[7].prot  frontDelayId  ETV
vector 146  scenario.node[6].prot  frontDelay  ETV
vector 144  scenario.node[6].prot  frontDelayId  ETV
vector 35  scenario.node[1].prot  leaderDelay  ETV
vector 33  scenario.node[1].prot  leaderDelayId  ETV
vector 36  scenario.node[1].prot  frontDelay  ETV
vector 34  scenario.node[1].prot  frontDelayId  ETV
vector 57  scenario.node[2].prot  leaderDelay  ETV
vector 55  scenario.node[2].prot  leaderDelayId  ETV
vector 79  scenario.node[3].prot  leaderDelay  ETV
vector 77  scenario.node[3].prot  leaderDelayId  ETV
vector 101  scenario.node[4].prot  leaderDelay  ETV
vector 99  scenario.node[4].prot  leaderDelayId  ETV
vector 123  scenario.node[5].prot  leaderDelay  ETV
vector 121  scenario.node[5].prot  leaderDelayId  ETV
vector 145  scenario.node[6].prot  leaderDelay  ETV
vector 143  scenario.node[6].prot  leaderDelayId  ETV
vector 167  scenario.node[7].prot  leaderDelay  ETV
vector 165  scenario.node[7].prot  leaderDelayId  ETV
vector 102  scenario.node[4].prot  frontDelay  ETV
vector 100  scenario.node[4].prot  frontDelayId  ETV
vector 80  scenario.node[3].prot  frontDelay  ETV
vector 78  scenario.node[3].prot  frontDelayId  ETV
vector 124  scenario.node[5].prot  frontDelay  ETV
vector 122  scenario.node[5].prot  frontDelayId  ETV
vector 58  scenario.node[2].prot  frontDelay  ETV
vector 56  scenario.node[2].prot  frontDelayId  ETV
vector 8  scenario.node[0].prot  nodeId  ETV
vector 9  scenario.node[0].prot  busyTime  ETV
vector 10  scenario.node[0].prot  collisions  ETV
vector 30  scenario.node[1].prot  nodeId  ETV
vector 31  scenario.node[1].prot  busyTime  ETV
vector 32  scenario.node[1].prot  collisions  ETV
vector 52  scenario.node[2].prot  nodeId  ETV
vector 53  scenario.node[2].prot  busyTime  ETV
vector 54  scenario.node[2].prot  collisions  ETV
vector 74  scenario.node[3].prot  nodeId  ETV
vector 75  scenario.node[3].prot  busyTime  ETV
vector 76  scenario.node[3].prot  collisions  ETV
vector 96  scenario.node[4].prot  nodeId  ETV
vector 97  scenario.node[4].prot  busyTime  ETV
vector 98  scenario.node[4].prot  collisions  ETV
vector 118  scenario.node[5].prot  nodeId  ETV
vector 119  scenario.node[5].prot  busyTime  ETV
vector 120  scenario.node[5].prot  collisions  ETV
vector 140  scenario.node[6].prot  nodeId  ETV
vector 141  scenario.node[6].prot  busyTime  ETV
vector 142  scenario.node[6].prot  collisions  ETV
vector 162  scenario.node[7].prot  nodeId  ETV
vector 163  scenario.node[7].prot  busyTime  ETV
vector 164  scenario.node[7].prot  collisions  ETV
7	11242 13859 232 328174 1.11 59.91 589 -1.5 1.5 -14.445953361693 993.24092335941
6	25101 18579 232 328174 1.11 59.91 589 -1.4722746795918 1.4513434175775 -12.507247963452 675.29835166926
5	43680 12081 232 328174 1.11 59.91 589 36.55 36.55 21527.95 786846.5725
4	55761 17902 232 328174 1.11 59.91 589 196.89330024759 2161.2094305675 695281.02276648 1010420812.0169
3	73663 17913 232 328174 1.11 59.91 589 32.043521415285 35.298048086563 19676.061011579 657739.0394163
1	91576 9725 232 328174 1.11 59.91 589 0 0 0 0
0	101301 10314 232 328174 1.11 59.91 589 -1 -1 -589 589
2	111615 9725 232 328174 1.11 59.91 589 0 0 0 0
10	121340 858 5168 328662 2 60 59 0 0 0 0
9	122198 1154 5168 328662 2 60 59 0.023297 0.02625 1.545797 0.040508375209
8	123352 799 5168 328662 2 60 59 0 0 0 0
29	124151 19271 233 328175 1.11 59.91 589 -1.5368751088269 1.5234354465166 4.514202812205 517.08084589364
28	143422 19343 233 328175 1.11 59.91 589 -1.4452180297546 1.3764490870003 6.2332494914493 373.07616739433
27	162765 12670 233 328175 1.11 59.91 589 36.55 36.55 21527.95 786846.5725
26	175435 18494 233 328175 1.11 59.91 589 174.22662849426 2142.945615744 682995.01370538 982949223.02773
25	193929 18503 233 328175 1.11 59.91 589 32.174708426945 35.328866122853 19720.743863688 660597.03896156
23	212432 19380 233 328175 1.11 59.91 589 -3.0781968834894 1.8889085414468 -44.55777962933 604.09739696047
22	231812 18493 233 328175 1.11 59.91 589 12.65626780529 20.065848973668 9930.9027181393 170670.548681
24	250305 10314 233 328175 1.11 59.91 589 1 1 589 589
36	260619 23711 1034 328420 1.262218343845 59.962211394472 588 0.09999962688 0.100012696538 58.799992714001 5.8799985452704
35	284330 23711 1034 328420 1.262218343845 59.962211394472 588 0.09999962688 0.100012696538 58.799992714001 5.8799985452704
34	308041 16132 1034 328420 1.262218343845 59.962211394472 588 1 1 588 588
33	324173 16132 1034 328420 1.262218343845 59.962211394472 588 1 1 588 588
32	340305 858 5169 328663 2 60 59 0 0 0 0
31	341163 1213 5169 328663 2 60 59 0.023296 0.02625 1.545796 0.040508328616
30	342376 858 5169 328663 2 60 59 1 1 59 59
51	343234 19306 234 328176 1.11 59.91 589 -1.5020343601865 1.4359875013879 6.6996689570827 406.20110376536
50	362540 19375 234 328176 1.11 59.91 589 -1.3544329809719 1.2691205235527 5.9035040824028 296.27164721145
49	381915 12670 234 328176 1.11 59.91 589 36.55 36.55 21527.95 786846.5725
48	394585 18487 234 328176 1.11 59.91 589 151.55996437073 2119.9602700914 669601.95421992 952213509.57702
47	413072 18502 234 328176 1.11 59.91 589 32.285141935896 35.247129772389 19717.541746033 660329.98053341
45	431574 19528 234 328176 1.11 59.91 589 -0.68794292750441 0.64291714532241 3.1397851598618 80.022706379543
44	451102 18489 234 328176 1.11 59.91 589 18.11286534108 19.641199863901 11036.995443113 206887.70940283
46	469591 10314 234 328176 1.11 59.91 589 2 2 1178 2356
58	479905 23698 1312 328707 1.302598024317 60.002604081629 588 0.099999626244 0.100012696635 58.800005720686 5.8800011467678
57	503603 23693 1040 328426 1.262218419453 59.962211471149 588 0.099999626859 0.100012696653 58.79999271507 5.8799985454842
56	527296 16117 1312 328707 1.302598024317 60.002604081629 588 2 2 1176 2352
55	543413 16116 1040 328426 1.262218419453 59.962211471149 588 2 2 1176 2352
54	559529 858 5170 328664 2 60 59 0 0 0 0
53	560387 1213 5170 328664 2 60 59 0.023297 0.02625 1.545797 0.040508375209
52	561600 858 5170 328664 2 60 59 2 2 118 236
73	562458 19392 235 328177 1.11 59.91 589 -1.4075544458861 1.3171442530711 6.064955065056 322.41040943597
72	581850 19474 235 328177 1.11 59.91 589 -1.2452157200208 1.2129290986074 3.607090240903 236.72637002946
71	601324 12670 235 328177 1.11 59.91 589 36.55 36.55 21527.95 786846.5725
70	613994 18495 235 328177 1.11 59.91 589 128.89330024719 2097.0848585188 656210.13955078 922090784.51898
69	632489 18483 235 328177 1.11 59.91 589 32.379099418325 35.170720380882 19715.371424052 660143.80074502
67	650972 19560 235 328177 1.11 59.91 589 -0.63471138266447 0.61272515912373 2.1112869403813 63.853745976892
66	670532 18485 235 328177 1.11 59.91 589 18.163751166878 19.602384609688 11035.771262698 206830.31305182
68	689017 10314 235 328177 1.11 59.91 589 3 3 1767 5301
80	699331 23712 1176 328556 1.287874646277 59.987880700199 588 0.099999626592 0.100012689332 58.800005717296 5.8800011460895
79	723043 23706 1046 328432 1.262218495061 59.962211547492 588 0.099999626769 0.100012696809 58.799992715805 5.8799985456312
78	746749 16128 1176 328556 1.287874646277 59.987880700199 588 3 3 1764 5292
77	762877 16116 1046 328432 1.262218495061 59.962211547492 588 3 3 1764 5292
76	778993 858 5171 328665 2 60 59 0 0 0 0
75	779851 1213 5171 328665 2 60 59 0.023297 0.02625 1.545797 0.040508375209
74	781064 858 5171 328665 2 60 59 3 3 177 531
95	781922 19432 236 328178 1.11 59.91 589 -1.2975793858527 1.2601803190674 3.4877491131004 257.76846403991
94	801354 19528 236 328178 1.11 59.91 589 -1.1384637731481 1.1571507081221 0.56538358158917 189.54243703184
93	820882 12670 236 328178 1.11 59.91 589 36.55 36.55 21527.95 786846.5725
92	833552 18498 236 328178 1.11 59.91 589 106.22663612366 2074.3670046536 642818.83033561 892577771.4201
91	852050 18504 236 328178 1.11 59.91 589 32.460275491225 35.10010332095 19714.752418294 660070.53937199
89	870554 19594 236 328178 1.11 59.91 589 -0.58148815185279 0.58490807587703 0.58293485572866 51.063737548117
88	890148 18493 236 328178 1.11 59.91 589 18.207615010185 19.565644454801 11035.296835055 206803.58232708
90	908641 10314 236 328178 1.11 59.91 589 4 4 2356 9424
102	918955 24315 1108 328488 1.276580570669 59.976586623331 588 0.099999626665 0.100012692469 58.800005716036 5.8800011458376
101	943270 24282 1052 328438 1.262218570668 59.962211623321 588 0.099999626665 0.100012696946 58.799992716027 5.8799985456756
100	967552 16724 1108 328488 1.276580570669 59.976586623331 588 4 4 2352 9408
99	984276 16118 1052 328438 1.262218570668 59.962211623321 588 4 4 2352 9408
98	1000394 858 5172 328666 2 60 59 0 0 0 0
97	1001252 1213 5172 328666 2 60 59 0.023297 0.02625 1.545797 0.040508375209
96	1002465 858 5172 328666 2 60 59 4 4 236 944
117	1003323 20075 237 328179 1.11 59.91 589 -1.1848236989763 1.2009658280057 0.25956278639925 206.08793432906
116	1023398 20128 237 328179 1.11 59.91 589 -1.0372261078395 1.1003484571781 -1.9996042712997 152.0351339949
115	1043526 13259 237 328179 1.11 59.91 589 36.55 36.55 21527.95 786846.5725
114	1056785 19080 237 328179 1.11 59.91 589 83.559968185425 2051.7904995335 629427.24534458 863671187.56243
113	1075865 19087 237 328179 1.11 59.91 589 32.534397106662 35.033687635171 19715.565300779 660098.92314773
111	1094952 20240 237 328179 1.11 59.91 589 -0.53004519539994 0.55634121951514 -0.81853632075318 40.85681143819
110	1115192 19084 237 328179 1.11 59.91 589 18.247045044141 19.530962622564 11035.601248677 206807.74776987
112	1134276 10903 237 328179 1.11 59.91 589 5 5 2945 14725
124	1145179 24308 1244 328624 1.297504797493 59.997510851425 588 0.099999626407 0.100012684502 58.800005717306 5.8800011460913
123	1169487 24281 1058 328444 1.262218646276 59.962211698671 588 0.099999626586 0.100012697039 58.799992715769 5.879998545624
122	1193768 16712 1244 328624 1.297504797493 59.997510851425 588 5 5 2940 14700
121	1210480 16696 1058 328444 1.262218646276 59.962211698671 588 5 5 2940 14700
120	1227176 917 5173 328667 2 60 59 0 0 0 0
119	1228093 1272 5173 328667 2 60 59 0.023297 0.02625 1.545797 0.040508375209
118	1229365 917 5173 328667 2 60 59 5 5 295 1475
139	1230282 20123 238 328180 1.11 59.91 589 -1.0795228260025 1.1397616993664 -2.3245249597106 164.56838421532
138	1250405 20155 238 328180 1.11 59.91 589 -0.94671701090832 1.0437453515557 -3.2903868179758 122.80164920848
137	1270560 13259 238 328180 1.11 59.91 589 36.55 36.55 21527.95 786846.5725
136	1283819 19094 238 328180 1.11 59.91 589 60.893300247192 2029.2919281199 616034.86900504 835368949.90514
135	1302913 19094 238 328180 1.11 59.91 589 32.603289277788 34.970970745959 19717.203045872 660186.79811382
133	1322007 20268 238 328180 1.11 59.91 589 -0.4834027744399 0.52761046509649 -1.6177490502298 32.873099240099
132	1342275 19085 238 328180 1.11 59.91 589 18.283645230047 19.497898019906 11036.409094441 206831.97167005
134	1361360 10903 238 328180 1.11 59.91 589 6 6 3534 21204
146	1372263 24284 970 328350 1.247595965806 59.947602044045 588 0.099999625887 0.100012684816 58.800005741613 5.8800011509526
145	1396547 24272 1064 328450 1.262218721884 59.962211773739 588 0.099999626554 0.100012697093 58.799992715229 5.879998545516
144	1420819 16697 970 328350 1.247595965806 59.947602044045 588 6 6 3528 21168
143	1437516 16701 1064 328450 1.262218721884 59.962211773739 588 6 6 3528 21168
142	1454217 917 5174 328668 2 60 59 0 0 0 0
141	1455134 1272 5174 328668 2 60 59 0.023297 0.02625 1.545797 0.040508375209
140	1456406 917 5174 328668 2 60 59 6 6 354 2124
161	1457323 20149 239 328181 1.11 59.91 589 -0.98715412130319 1.0818321638506 -3.5361563342388 133.38480420102
160	1477472 20160 239 328181 1.11 59.91 589 -0.86778459053605 0.9895678906453 -3.1489909121753 100.2496355738
159	1497632 13259 239 328181 1.11 59.91 589 36.55 36.55 21527.95 786846.5725
158	1510891 19089 239 328181 1.11 59.91 589 38.226633262634 2006.7950103987 602641.58702098 807670674.51909
157	1529980 19077 239 328181 1.11 59.91 589 32.666319931638 34.913244902409 19718.907509423 660283.20973391
155	1549057 20267 239 328181 1.11 59.91 589 -0.44267537420583 0.49995643618802 -1.6715596831243 26.740110782842
154	1569324 19088 239 328181 1.11 59.91 589 18.317033064159 19.467418403798 11037.316073327 206861.01806709
156	1588412 10903 239 328181 1.11 59.91 589 7 7 4123 28861
168	1599315 24286 832 328212 1.212137738982 59.912130818893 588 0.099999625951 0.100012709369 58.799992743285 5.8799985511274
167	1623601 24288 1070 328456 1.262218797492 59.962211848779 588 0.099999626565 0.100012697119 58.799992714661 5.8799985454024
166	1647889 16701 832 328212 1.212137738982 59.912130818893 588 7 7 4116 28812
165	1664590 16710 1070 328456 1.262218797492 59.962211848779 588 7 7 4116 28812
164	1681300 917 5175 328669 2 60 59 0 0 0 0
163	1682217 1272 5175 328669 2 60 59 0.023297 0.02625 1.545797 0.040508375209
162	1683489 917 5175 328669 2 60 59 7 7 413 2891
