file 1694979 1501509871                                         
version 2
run SinusoidalJammingAttack-70-20170731-16:04:01-56672
attr CACCSpacing 5
attr attackAcc -30
attr attackPos 7
attr attackSpeed 150
attr attackStart 30
attr attacker 1
attr beaconInterval 0.1
attr configname SinusoidalJammingAttack
attr controller 3
attr datetime 20170731-16:04:01
attr experiment SinusoidalJammingAttack
attr fakeAcc "(1 == 4)"
attr fakePos "(1 == 2)"
attr fakeSpeed "(1 == 3)"
attr inifile omnetpp_70.ini
attr iterationvars "$leaderSpeed=100, $controller=3, $CACCSpacing=5, $sController=\"CONSENSUS\", $attacker=1, $attackStart=30, $attackSpeed=150, $attackPos=7, $attackAcc=-30, $0=15, $1=0.8, $nCars=8, $platoonSize=8, $nLanes=1, $beaconInterval=0.1, $priority=2, $packetSize=200, $ploegH=0.5, $leaderHeadway=1.2, $fakeSpeed=(1 == 3), $fakeAcc=(1 == 4), $fakePos=(1 == 2)"
attr iterationvarsf leaderSpeed=100,controller=3,CACCSpacing=5,sController=CONSENSUS,attacker=1,attackStart=30,attackSpeed=150,attackPos=7,attackAcc=-30,15,0.8,nCars=8,platoonSize=8,nLanes=1,beaconInterval=0.1,priority=2,packetSize=200,ploegH=0.5,leaderHeadway=1.2,fakeSpeed=(1_==_3),fakeAcc=(1_==_4),fakePos=(1_==_2)-
attr leaderHeadway 1.2
attr leaderSpeed 100
attr measurement "$leaderSpeed=100, $controller=3, $CACCSpacing=5, $sController=\"CONSENSUS\", $attacker=1, $attackStart=30, $attackSpeed=150, $attackPos=7, $attackAcc=-30, $0=15, $1=0.8, $nCars=8, $platoonSize=8, $nLanes=1, $beaconInterval=0.1, $priority=2, $packetSize=200, $ploegH=0.5, $leaderHeadway=1.2, $fakeSpeed=(1 == 3), $fakeAcc=(1 == 4), $fakePos=(1 == 2)"
attr nCars 8
attr nLanes 1
attr network scenario
attr packetSize 200
attr platoonSize 8
attr ploegH 0.5
attr priority 2
attr processid 56672
attr repetition 0
attr replication #0
attr resultdir results
attr runnumber 70
attr sController "\"CONSENSUS\""
attr seedset 0
param **.coreDebug false
param **.debug false
param **.headway 0.1s
param **.numberOfCars 8
param **.numberOfCarsPerPlatoon 8
param **.numberOfLanes 1
param **.numericController 3
param **.traffic.nCars 8
param **.traffic.nLanes 1
param **.traffic.platoonInsertDistance 15m
param **.traffic.platoonInsertHeadway 0.8s
param **.traffic.platoonInsertSpeed 100kmph
param **.traffic.platoonInsertTime "1 s"
param **.traffic.platoonLeaderHeadway 1.2s
param **.traffic.platoonSize 8
param **.traffic.platooningVType "\"vtypeauto\""
param **.traffic_type "\"PlatoonsTrafficManager\""
param *.**.nic.mac1609_4.bitrate 6Mbps
param *.**.nic.mac1609_4.txPower 100mW
param *.**.nic.mac1609_4.useServiceChannel false
param *.**.nic.phy80211p.analogueModels "xmldoc(\"config.xml\")"
param *.**.nic.phy80211p.decider "xmldoc(\"config.xml\")"
param *.**.nic.phy80211p.maxTXPower 100mW
param *.**.nic.phy80211p.sensitivity -94dBm
param *.**.nic.phy80211p.thermalNoise -95dBm
param *.**.nic.phy80211p.usePropagationDelay true
param *.**.nic.phy80211p.useThermalNoise true
param *.annotations.draw false
param *.connectionManager.alpha 2.0
param *.connectionManager.carrierFrequency "5.890e9 Hz"
param *.connectionManager.pMax 100mW
param *.connectionManager.sat -94dBm
param *.connectionManager.sendDirect true
param *.manager.autoShutdown true
param *.manager.commandLine "\"sumo --remote-port $port --seed $seed --configuration-file $configFile\""
param *.manager.configFile "\"./sumocfg/freeway.sumo.cfg\""
param *.manager.host "\"localhost\""
param *.manager.margin 25
param *.manager.moduleDisplayString "\"\""
param *.manager.moduleName "\"node\""
param *.manager.moduleType "\"Car\""
param *.manager.updateInterval 0.01s
param *.node[*].appl.attackStart 30s
param *.node[*].appl.attackerType 1
param *.node[*].appl.simulationDuration "60 s"
param *.node[*].appl_type "\"SimplePlatooningApp\""
param *.node[*].helper.nCars 8
param *.node[*].helper.nLanes 1
param *.node[*].helper.platoonSize 8
param *.node[*].helper_type "\"PositionHelper\""
param *.node[*].mobility.x 0
param *.node[*].mobility.y 0
param *.node[*].mobility.z 1.895
param *.node[*].prot.attackStart 30s
param *.node[*].prot.attackerType 1
param *.node[*].prot.attackingNode 3
param *.node[*].prot.beaconingInterval 0.1s
param *.node[*].prot.fakeAcc "(1 == 4)"
param *.node[*].prot.fakePos "(1 == 2)"
param *.node[*].prot.fakeSpeed "(1 == 3)"
param *.node[*].prot.maliciousAcc "-30 mpss"
param *.node[*].prot.maliciousSpeed 150kmph
param *.node[*].prot.packetSize 200
param *.node[*].prot.priority 2
param *.node[*].prot.shiftX "7 m"
param *.node[*].prot.useControllerAcceleration true
param *.node[*].protocol_type "\"SimplePlatooningBeaconing\""
param *.node[*].scenario.accHeadway 0.1s
param *.node[*].scenario.caccC1 0.5
param *.node[*].scenario.caccOmegaN "0.2 Hz"
param *.node[*].scenario.caccSpacing 5m
param *.node[*].scenario.caccXi 1
param *.node[*].scenario.controller "\"CONSENSUS\""
param *.node[*].scenario.engineTau "0.5 s"
param *.node[*].scenario.leaderHeadway 1.2s
param *.node[*].scenario.leaderOscillationFrequency "0.2 Hz"
param *.node[*].scenario.leaderSpeed 100kmph
param *.node[*].scenario.oscillationAmplitude "10 kmph"
param *.node[*].scenario.ploegH 0.5s
param *.node[*].scenario.ploegKd 0.7
param *.node[*].scenario.ploegKp 0.2
param *.node[*].scenario.startOscillating "5 s"
param *.node[*].scenario.useRealisticEngine false
param *.node[*].scenario_type "\"SinusoidalScenario\""
param *.node[*].unicast.packetLossRate 0
param *.obstacles.debug false
param *.playgroundSizeX 65000m
param *.playgroundSizeY 25000m
param *.playgroundSizeZ 50m
param *.world.use2D false
param *.world.useTorus false

vector 0  scenario.node[0].appl  distance  ETV
vector 1  scenario.node[0].appl  relativeSpeed  ETV
vector 2  scenario.node[0].appl  nodeId  ETV
vector 6  scenario.node[0].appl  acceleration  ETV
vector 7  scenario.node[0].appl  controllerAcceleration  ETV
vector 3  scenario.node[0].appl  speed  ETV
vector 4  scenario.node[0].appl  posx  ETV
vector 5  scenario.node[0].appl  posy  ETV
vector 22  scenario.node[1].appl  distance  ETV
vector 23  scenario.node[1].appl  relativeSpeed  ETV
vector 24  scenario.node[1].appl  nodeId  ETV
vector 28  scenario.node[1].appl  acceleration  ETV
vector 29  scenario.node[1].appl  controllerAcceleration  ETV
vector 25  scenario.node[1].appl  speed  ETV
vector 26  scenario.node[1].appl  posx  ETV
vector 27  scenario.node[1].appl  posy  ETV
vector 44  scenario.node[2].appl  distance  ETV
vector 45  scenario.node[2].appl  relativeSpeed  ETV
vector 46  scenario.node[2].appl  nodeId  ETV
vector 50  scenario.node[2].appl  acceleration  ETV
vector 51  scenario.node[2].appl  controllerAcceleration  ETV
vector 47  scenario.node[2].appl  speed  ETV
vector 48  scenario.node[2].appl  posx  ETV
vector 49  scenario.node[2].appl  posy  ETV
vector 66  scenario.node[3].appl  distance  ETV
vector 67  scenario.node[3].appl  relativeSpeed  ETV
vector 68  scenario.node[3].appl  nodeId  ETV
vector 72  scenario.node[3].appl  acceleration  ETV
vector 73  scenario.node[3].appl  controllerAcceleration  ETV
vector 69  scenario.node[3].appl  speed  ETV
vector 70  scenario.node[3].appl  posx  ETV
vector 71  scenario.node[3].appl  posy  ETV
vector 88  scenario.node[4].appl  distance  ETV
vector 89  scenario.node[4].appl  relativeSpeed  ETV
vector 90  scenario.node[4].appl  nodeId  ETV
vector 94  scenario.node[4].appl  acceleration  ETV
vector 95  scenario.node[4].appl  controllerAcceleration  ETV
vector 91  scenario.node[4].appl  speed  ETV
vector 92  scenario.node[4].appl  posx  ETV
vector 93  scenario.node[4].appl  posy  ETV
vector 110  scenario.node[5].appl  distance  ETV
vector 111  scenario.node[5].appl  relativeSpeed  ETV
vector 112  scenario.node[5].appl  nodeId  ETV
vector 116  scenario.node[5].appl  acceleration  ETV
vector 117  scenario.node[5].appl  controllerAcceleration  ETV
vector 113  scenario.node[5].appl  speed  ETV
vector 114  scenario.node[5].appl  posx  ETV
vector 115  scenario.node[5].appl  posy  ETV
vector 132  scenario.node[6].appl  distance  ETV
vector 133  scenario.node[6].appl  relativeSpeed  ETV
vector 134  scenario.node[6].appl  nodeId  ETV
vector 138  scenario.node[6].appl  acceleration  ETV
vector 139  scenario.node[6].appl  controllerAcceleration  ETV
vector 135  scenario.node[6].appl  speed  ETV
vector 136  scenario.node[6].appl  posx  ETV
vector 137  scenario.node[6].appl  posy  ETV
vector 154  scenario.node[7].appl  distance  ETV
vector 155  scenario.node[7].appl  relativeSpeed  ETV
vector 156  scenario.node[7].appl  nodeId  ETV
vector 160  scenario.node[7].appl  acceleration  ETV
vector 161  scenario.node[7].appl  controllerAcceleration  ETV
vector 157  scenario.node[7].appl  speed  ETV
vector 158  scenario.node[7].appl  posx  ETV
vector 159  scenario.node[7].appl  posy  ETV
vector 80  scenario.node[3].prot  frontDelay  ETV
vector 78  scenario.node[3].prot  frontDelayId  ETV
vector 58  scenario.node[2].prot  frontDelay  ETV
vector 56  scenario.node[2].prot  frontDelayId  ETV
vector 168  scenario.node[7].prot  frontDelay  ETV
vector 166  scenario.node[7].prot  frontDelayId  ETV
vector 35  scenario.node[1].prot  leaderDelay  ETV
vector 33  scenario.node[1].prot  leaderDelayId  ETV
vector 36  scenario.node[1].prot  frontDelay  ETV
vector 34  scenario.node[1].prot  frontDelayId  ETV
vector 57  scenario.node[2].prot  leaderDelay  ETV
vector 55  scenario.node[2].prot  leaderDelayId  ETV
vector 79  scenario.node[3].prot  leaderDelay  ETV
vector 77  scenario.node[3].prot  leaderDelayId  ETV
vector 101  scenario.node[4].prot  leaderDelay  ETV
vector 99  scenario.node[4].prot  leaderDelayId  ETV
vector 123  scenario.node[5].prot  leaderDelay  ETV
vector 121  scenario.node[5].prot  leaderDelayId  ETV
vector 145  scenario.node[6].prot  leaderDelay  ETV
vector 143  scenario.node[6].prot  leaderDelayId  ETV
vector 167  scenario.node[7].prot  leaderDelay  ETV
vector 165  scenario.node[7].prot  leaderDelayId  ETV
vector 124  scenario.node[5].prot  frontDelay  ETV
vector 122  scenario.node[5].prot  frontDelayId  ETV
vector 102  scenario.node[4].prot  frontDelay  ETV
vector 100  scenario.node[4].prot  frontDelayId  ETV
vector 146  scenario.node[6].prot  frontDelay  ETV
vector 144  scenario.node[6].prot  frontDelayId  ETV
vector 8  scenario.node[0].prot  nodeId  ETV
vector 9  scenario.node[0].prot  busyTime  ETV
vector 10  scenario.node[0].prot  collisions  ETV
vector 30  scenario.node[1].prot  nodeId  ETV
vector 31  scenario.node[1].prot  busyTime  ETV
vector 32  scenario.node[1].prot  collisions  ETV
vector 52  scenario.node[2].prot  nodeId  ETV
vector 53  scenario.node[2].prot  busyTime  ETV
vector 54  scenario.node[2].prot  collisions  ETV
vector 74  scenario.node[3].prot  nodeId  ETV
vector 75  scenario.node[3].prot  busyTime  ETV
vector 76  scenario.node[3].prot  collisions  ETV
vector 96  scenario.node[4].prot  nodeId  ETV
vector 97  scenario.node[4].prot  busyTime  ETV
vector 98  scenario.node[4].prot  collisions  ETV
vector 118  scenario.node[5].prot  nodeId  ETV
vector 119  scenario.node[5].prot  busyTime  ETV
vector 120  scenario.node[5].prot  collisions  ETV
vector 140  scenario.node[6].prot  nodeId  ETV
vector 141  scenario.node[6].prot  busyTime  ETV
vector 142  scenario.node[6].prot  collisions  ETV
vector 162  scenario.node[7].prot  nodeId  ETV
vector 163  scenario.node[7].prot  busyTime  ETV
vector 164  scenario.node[7].prot  collisions  ETV
7	11266 13860 232 328174 1.11 59.91 589 -1.5 1.5 -14.445974034379 993.24092368185
6	25126 18594 232 328174 1.11 59.91 589 -1.4722746794938 1.4513434175793 -12.50726914995 675.29835222675
5	43720 12081 232 328174 1.11 59.91 589 36.55 36.55 21527.95 786846.5725
4	55801 17909 232 328174 1.11 59.91 589 324.77320022556 1962.422665768 674398.95162459 903969859.32138
3	73710 17905 232 328174 1.11 59.91 589 26.487965859734 29.742492528104 16403.83880962 457295.15275867
1	91615 9725 232 328174 1.11 59.91 589 0 0 0 0
0	101340 10314 232 328174 1.11 59.91 589 -1 -1 -589 589
2	111654 9725 232 328174 1.11 59.91 589 0 0 0 0
10	121379 858 5102 328596 2 60 59 0 0 0 0
9	122237 1154 5102 328596 2 60 59 0.022969 0.02625 1.545469 0.040493199961
8	123391 799 5102 328596 2 60 59 0 0 0 0
29	124190 20174 233 328175 1.11 59.91 589 -1.9741825330129 1.9677803128469 -12.603599971523 512.47724859063
28	144364 20162 233 328175 1.11 59.91 589 -1.7218030083651 1.7126226318624 -12.525228813535 364.14021590172
27	164526 12670 233 328175 1.11 59.91 589 36.55 36.55 21527.95 786846.5725
26	177196 18491 233 328175 1.11 59.91 589 283.55097122192 1884.6713139925 644822.23023478 832044052.31714
25	195687 18502 233 328175 1.11 59.91 589 26.284386733125 29.733432791865 16038.543277285 437269.26645156
23	214189 19176 233 328175 1.11 59.91 589 -1.2227231725612 2.5402594815155 365.42060502606 895.83391455142
22	233365 18489 233 328175 1.11 59.91 589 36.176380448792 73.750808572493 27213.415479162 1337659.921094
24	251854 10314 233 328175 1.11 59.91 589 1 1 589 589
36	262168 23692 1032 328418 1.254915637607 59.954919308495 588 0.099897850073 0.100092984219 58.800018520961 5.8800047530183
35	285860 23692 1032 328418 1.254915637607 59.954919308495 588 0.099897850073 0.100092984219 58.800018520961 5.8800047530183
34	309552 16113 1032 328418 1.254915637607 59.954919308495 588 1 1 588 588
33	325665 16113 1032 328418 1.254915637607 59.954919308495 588 1 1 588 588
32	341778 858 5103 328597 2 60 59 0 0 0 0
31	342636 1213 5103 328597 2 60 59 0.022969 0.02625 1.545469 0.040493199961
30	343849 858 5103 328597 2 60 59 1 1 59 59
51	344707 20093 234 328176 1.11 59.91 589 -1.470892066307 1.4585163991193 -12.702211919609 295.27304280445
50	364800 20131 234 328176 1.11 59.91 589 -1.2930964399892 1.2691598257945 -12.523629191924 205.719772221
49	384931 12670 234 328176 1.11 59.91 589 36.55 36.55 21527.95 786846.5725
48	397601 18502 234 328176 1.11 59.91 589 242.32875747681 1844.4493911076 620760.49960427 780600168.63635
47	416103 18487 234 328176 1.11 59.91 589 26.526930818555 29.400439162132 16048.546300181 437693.02987399
45	434590 20159 234 328176 1.11 59.91 589 -0.38764012536485 0.35859911043525 -9.877770608108 17.121891902377
44	454749 18475 234 328176 1.11 59.91 589 36.221925646784 37.874817987905 21705.930690966 800080.64073134
46	473224 10314 234 328176 1.11 59.91 589 2 2 1178 2356
58	483538 23698 900 328280 1.229661125079 59.929664581427 588 0.099988849824 0.100002010124 58.800005306421 5.8800010735731
57	507236 23709 1038 328424 1.254915775109 59.954919442661 588 0.099897850073 0.100092984219 58.800018517625 5.8800047523511
56	530945 16109 900 328280 1.229661125079 59.929664581427 588 2 2 1176 2352
55	547054 16127 1038 328424 1.254915775109 59.954919442661 588 2 2 1176 2352
54	563181 858 5104 328598 2 60 59 0 0 0 0
53	564039 1213 5104 328598 2 60 59 0.022969 0.02625 1.545469 0.040493199961
52	565252 858 5104 328598 2 60 59 2 2 118 236
73	566110 19975 235 328177 1.11 59.91 589 -1.5377957074449 1.5264590454273 -12.888783154915 317.12212636021
72	586085 19997 235 328177 1.11 59.91 589 -1.3294202106678 1.3168623802233 -12.521929539989 220.33672029597
71	606082 12670 235 328177 1.11 59.91 589 36.55 36.55 21527.95 786846.5725
70	618752 18497 235 328177 1.11 59.91 589 201.1065284729 1804.2249082213 596664.05575737 731031153.03925
69	637249 18486 235 328177 1.11 59.91 589 26.52770108221 29.342713140305 16058.524032851 438230.22907294
67	655735 20287 235 328177 1.11 59.91 589 -0.13165858710467 0.12549698694204 -9.8524963776007 1.7784831504395
66	676022 18481 235 328177 1.11 59.91 589 36.224498291511 37.545179653639 21740.643401559 802609.59996074
68	694503 10314 235 328177 1.11 59.91 589 3 3 1767 5301
80	704817 23709 832 328218 1.213907987576 59.913898447269 588 0.099988849956 0.100002010123 58.799992309766 5.8799984743598
79	728526 23711 1044 328430 1.254915912612 59.954919576836 588 0.099897850073 0.100092984219 58.800018514297 5.8800047516855
78	752237 16118 832 328218 1.213907987576 59.913898447269 588 3 3 1764 5292
77	768355 16122 1044 328430 1.254915912612 59.954919576836 588 3 3 1764 5292
76	784477 858 5105 328599 2 60 59 0 0 0 0
75	785335 1213 5105 328599 2 60 59 0.022968 0.02625 1.545468 0.040493154024
74	786548 858 5105 328599 2 60 59 3 3 177 531
95	787406 19888 236 328178 1.11 59.91 589 -1.4973582777454 1.4912570291989 -13.143242617364 303.96933133144
94	807294 19904 236 328178 1.11 59.91 589 -1.2930775215906 1.28461620919 -12.508797940483 210.2509405808
93	827198 12670 236 328178 1.11 59.91 589 36.55 36.55 21527.95 786846.5725
92	839868 18485 236 328178 1.11 59.91 589 159.88431472778 1763.991215831 572536.21171804 683347655.42214
91	858353 18497 236 328178 1.11 59.91 589 26.530459832039 29.307589749042 16068.410031959 438749.02491274
89	876850 20280 236 328178 1.11 59.91 589 -0.07602912113148 0.052129820560495 -9.760779813217 0.7137494653431
88	897130 18496 236 328178 1.11 59.91 589 36.23374756534 37.452891988196 21772.041759312 804906.3681795
90	915626 10314 236 328178 1.11 59.91 589 4 4 2356 9424
102	925940 24286 1246 328641 1.303554150136 60.003557786238 588 0.099988849789 0.10000201013 58.800005486175 5.8800011095218
101	950226 24295 1050 328436 1.254916050114 59.95491971104 588 0.099897850073 0.100092984217 58.800018510999 5.8800047510259
100	974521 16710 1246 328641 1.303554150136 60.003557786238 588 4 4 2352 9408
99	991231 16117 1050 328436 1.254916050114 59.95491971104 588 4 4 2352 9408
98	1007348 858 5106 328600 2 60 59 0 0 0 0
97	1008206 1213 5106 328600 2 60 59 0.022969 0.02625 1.545469 0.040493199961
96	1009419 858 5106 328600 2 60 59 4 4 236 944
117	1010277 20468 237 328179 1.11 59.91 589 -1.4308156633116 1.4286180218838 -12.24001544531 278.2018898685
116	1030745 20483 237 328179 1.11 59.91 589 -1.2579553277796 1.2517705644356 -12.404347792557 198.70893770956
115	1051228 13259 237 328179 1.11 59.91 589 36.55 36.55 21527.95 786846.5725
114	1064487 19066 237 328179 1.11 59.91 589 118.66208572388 1723.7338649401 548380.55625982 637561770.18336
113	1083553 19095 237 328179 1.11 59.91 589 26.537534022744 29.272438223601 16078.061326224 439254.17578833
111	1102648 20869 237 328179 1.11 59.91 589 -0.061098743518375 0.053161988117768 -9.5262062847407 0.60910065018945
110	1123517 19086 237 328179 1.11 59.91 589 36.257492374652 37.420743850512 21799.848484099 806940.51426137
112	1142603 10903 237 328179 1.11 59.91 589 5 5 2945 14725
124	1153506 24268 1172 328558 1.265753012633 59.965756652112 588 0.099988849711 0.100002010129 58.800005489552 5.8800011101987
123	1177774 24318 1056 328442 1.254916187617 59.954919845324 588 0.099897850073 0.100092984213 58.80001850778 5.8800047503821
122	1202092 16702 1172 328558 1.265753012633 59.965756652112 588 5 5 2940 14700
121	1218794 16713 1056 328442 1.254916187617 59.954919845324 588 5 5 2940 14700
120	1235507 917 5107 328601 2 60 59 0 0 0 0
119	1236424 1272 5107 328601 2 60 59 0.022968 0.02625 1.545468 0.040493154024
118	1237696 917 5107 328601 2 60 59 5 5 295 1475
139	1238613 20424 238 328180 1.11 59.91 589 -1.4213470413689 1.4185954144512 -13.325492915917 274.72788886888
138	1259037 20454 238 328180 1.11 59.91 589 -1.2279810906456 1.2240999381003 -12.313940978779 189.84760871887
137	1279491 13259 238 328180 1.11 59.91 589 36.55 36.55 21527.95 786846.5725
136	1292750 19082 238 328180 1.11 59.91 589 77.439864349365 1683.4302358729 524200.98971446 593687158.87995
135	1311832 19077 238 328180 1.11 59.91 589 26.551397378937 29.237396726851 16087.251967773 439735.94288412
133	1330909 20823 238 328180 1.11 59.91 589 -0.050853361048453 0.037821933065363 -9.0665980710121 0.49358583122197
132	1351732 19069 238 328180 1.11 59.91 589 36.303906334397 37.386554383522 21823.750358198 808688.93666794
134	1370801 10903 238 328180 1.11 59.91 589 6 6 3534 21204
146	1381704 24295 1312 328707 1.305163425141 60.005167054954 588 0.099988849819 0.100002010123 58.800005479886 5.8800011082661
145	1405999 24305 1062 328448 1.254916325119 59.95491997976 588 0.099897850073 0.100092984207 58.800018504714 5.8800047497689
144	1430304 16711 1312 328707 1.305163425141 60.005167054954 588 6 6 3528 21168
143	1447015 16706 1062 328448 1.254916325119 59.95491997976 588 6 6 3528 21168
142	1463721 917 5108 328602 2 60 59 0 0 0 0
141	1464638 1272 5108 328602 2 60 59 0.022969 0.02625 1.545469 0.040493199961
140	1465910 917 5108 328602 2 60 59 6 6 354 2124
161	1466827 20417 239 328181 1.11 59.91 589 -1.3674315724168 1.3648177965903 -12.037560185419 253.9461743105
160	1487244 20439 239 328181 1.11 59.91 589 -1.196663167643 1.1930825862109 -12.042100922691 180.26763430651
159	1507683 13259 239 328181 1.11 59.91 589 36.55 36.55 21527.95 786846.5725
158	1520942 19091 239 328181 1.11 59.91 589 36.217641067505 1643.0549290311 500002.14698198 551739949.45724
157	1540033 19067 239 328181 1.11 59.91 589 26.573064858236 29.202803475629 16095.72900021 440179.76568435
155	1559100 20840 239 328181 1.11 59.91 589 -0.043457742182216 0.036782364692357 -8.3538930273494 0.42656308428542
154	1579940 19081 239 328181 1.11 59.91 589 36.375740191379 37.364372986133 21843.012273127 810098.01888893
156	1599021 10903 239 328181 1.11 59.91 589 7 7 4123 28861
168	1609924 24285 975 328361 1.254436812592 59.954427253203 588 0.099988849674 0.100002010097 58.799992290684 5.879998470543
167	1634209 24270 1068 328454 1.254916462622 59.954920114435 588 0.099897850073 0.100092984197 58.800018501886 5.8800047492033
166	1658479 16704 975 328361 1.254436812592 59.954427253203 588 7 7 4116 28812
165	1675183 16690 1068 328454 1.254916462622 59.954920114435 588 7 7 4116 28812
164	1691873 917 5109 328603 2 60 59 0 0 0 0
163	1692790 1272 5109 328603 2 60 59 0.022969 0.02625 1.545469 0.040493199961
162	1694062 917 5109 328603 2 60 59 7 7 413 2891
