version 2
run SinusoidalJammingAttack-100-20170731-16:11:14-41027
attr CACCSpacing 5
attr attackAcc -30
attr attackPos 7
attr attackSpeed 150
attr attackStart 30
attr attacker 1
attr beaconInterval 0.1
attr configname SinusoidalJammingAttack
attr controller 1
attr datetime 20170731-16:11:14
attr experiment SinusoidalJammingAttack
attr fakeAcc "(1 == 4)"
attr fakePos "(1 == 2)"
attr fakeSpeed "(1 == 3)"
attr inifile omnetpp_100.ini
attr iterationvars "$leaderSpeed=150, $controller=1, $CACCSpacing=5, $sController=\"CACC\", $attacker=1, $attackStart=30, $attackSpeed=150, $attackPos=7, $attackAcc=-30, $0=5, $1=0, $nCars=8, $platoonSize=8, $nLanes=1, $beaconInterval=0.1, $priority=2, $packetSize=200, $ploegH=0.5, $leaderHeadway=1.2, $fakeSpeed=(1 == 3), $fakeAcc=(1 == 4), $fakePos=(1 == 2)"
attr iterationvarsf leaderSpeed=150,controller=1,CACCSpacing=5,sController=CACC,attacker=1,attackStart=30,attackSpeed=150,attackPos=7,attackAcc=-30,5,0,nCars=8,platoonSize=8,nLanes=1,beaconInterval=0.1,priority=2,packetSize=200,ploegH=0.5,leaderHeadway=1.2,fakeSpeed=(1_==_3),fakeAcc=(1_==_4),fakePos=(1_==_2)-
attr leaderHeadway 1.2
attr leaderSpeed 150
attr measurement "$leaderSpeed=150, $controller=1, $CACCSpacing=5, $sController=\"CACC\", $attacker=1, $attackStart=30, $attackSpeed=150, $attackPos=7, $attackAcc=-30, $0=5, $1=0, $nCars=8, $platoonSize=8, $nLanes=1, $beaconInterval=0.1, $priority=2, $packetSize=200, $ploegH=0.5, $leaderHeadway=1.2, $fakeSpeed=(1 == 3), $fakeAcc=(1 == 4), $fakePos=(1 == 2)"
attr nCars 8
attr nLanes 1
attr network scenario
attr packetSize 200
attr platoonSize 8
attr ploegH 0.5
attr priority 2
attr processid 41027
attr repetition 0
attr replication #0
attr resultdir results
attr runnumber 100
attr sController "\"CACC\""
attr seedset 0
param **.coreDebug false
param **.debug false
param **.headway 0.1s
param **.numberOfCars 8
param **.numberOfCarsPerPlatoon 8
param **.numberOfLanes 1
param **.numericController 1
param **.traffic.nCars 8
param **.traffic.nLanes 1
param **.traffic.platoonInsertDistance 5m
param **.traffic.platoonInsertHeadway 0s
param **.traffic.platoonInsertSpeed 150kmph
param **.traffic.platoonInsertTime "1 s"
param **.traffic.platoonLeaderHeadway 1.2s
param **.traffic.platoonSize 8
param **.traffic.platooningVType "\"vtypeauto\""
param **.traffic_type "\"PlatoonsTrafficManager\""
param *.**.nic.mac1609_4.bitrate 6Mbps
param *.**.nic.mac1609_4.txPower 100mW
param *.**.nic.mac1609_4.useServiceChannel false
param *.**.nic.phy80211p.analogueModels "xmldoc(\"config.xml\")"
param *.**.nic.phy80211p.decider "xmldoc(\"config.xml\")"
param *.**.nic.phy80211p.maxTXPower 100mW
param *.**.nic.phy80211p.sensitivity -94dBm
param *.**.nic.phy80211p.thermalNoise -95dBm
param *.**.nic.phy80211p.usePropagationDelay true
param *.**.nic.phy80211p.useThermalNoise true
param *.annotations.draw false
param *.connectionManager.alpha 2.0
param *.connectionManager.carrierFrequency "5.890e9 Hz"
param *.connectionManager.pMax 100mW
param *.connectionManager.sat -94dBm
param *.connectionManager.sendDirect true
param *.manager.autoShutdown true
param *.manager.commandLine "\"sumo --remote-port $port --seed $seed --configuration-file $configFile\""
param *.manager.configFile "\"./sumocfg/freeway.sumo.cfg\""
param *.manager.host "\"localhost\""
param *.manager.margin 25
param *.manager.moduleDisplayString "\"\""
param *.manager.moduleName "\"node\""
param *.manager.moduleType "\"Car\""
param *.manager.updateInterval 0.01s
param *.node[*].appl.attackStart 30s
param *.node[*].appl.attackerType 1
param *.node[*].appl.simulationDuration "60 s"
param *.node[*].appl_type "\"SimplePlatooningApp\""
param *.node[*].helper.nCars 8
param *.node[*].helper.nLanes 1
param *.node[*].helper.platoonSize 8
param *.node[*].helper_type "\"PositionHelper\""
param *.node[*].mobility.x 0
param *.node[*].mobility.y 0
param *.node[*].mobility.z 1.895
param *.node[*].prot.attackStart 30s
param *.node[*].prot.attackerType 1
param *.node[*].prot.attackingNode 3
param *.node[*].prot.beaconingInterval 0.1s
param *.node[*].prot.fakeAcc "(1 == 4)"
param *.node[*].prot.fakePos "(1 == 2)"
param *.node[*].prot.fakeSpeed "(1 == 3)"
param *.node[*].prot.maliciousAcc "-30 mpss"
param *.node[*].prot.maliciousSpeed 150kmph
param *.node[*].prot.packetSize 200
param *.node[*].prot.priority 2
param *.node[*].prot.shiftX "7 m"
param *.node[*].prot.useControllerAcceleration true
param *.node[*].protocol_type "\"SimplePlatooningBeaconing\""
param *.node[*].scenario.accHeadway 0.1s
param *.node[*].scenario.caccC1 0.5
param *.node[*].scenario.caccOmegaN "0.2 Hz"
param *.node[*].scenario.caccSpacing 5m
param *.node[*].scenario.caccXi 1
param *.node[*].scenario.controller "\"CACC\""
param *.node[*].scenario.engineTau "0.5 s"
param *.node[*].scenario.leaderHeadway 1.2s
param *.node[*].scenario.leaderOscillationFrequency "0.2 Hz"
param *.node[*].scenario.leaderSpeed 150kmph
param *.node[*].scenario.oscillationAmplitude "10 kmph"
param *.node[*].scenario.ploegH 0.5s
param *.node[*].scenario.ploegKd 0.7
param *.node[*].scenario.ploegKp 0.2
param *.node[*].scenario.startOscillating "5 s"
param *.node[*].scenario.useRealisticEngine false
param *.node[*].scenario_type "\"SinusoidalScenario\""
param *.node[*].unicast.packetLossRate 0
param *.obstacles.debug false
param *.playgroundSizeX 65000m
param *.playgroundSizeY 25000m
param *.playgroundSizeZ 50m
param *.world.use2D false
param *.world.useTorus false

vector 0  scenario.node[0].appl  distance  ETV
vector 1  scenario.node[0].appl  relativeSpeed  ETV
vector 2  scenario.node[0].appl  nodeId  ETV
vector 6  scenario.node[0].appl  acceleration  ETV
vector 7  scenario.node[0].appl  controllerAcceleration  ETV
vector 3  scenario.node[0].appl  speed  ETV
vector 4  scenario.node[0].appl  posx  ETV
vector 5  scenario.node[0].appl  posy  ETV
vector 22  scenario.node[1].appl  distance  ETV
vector 23  scenario.node[1].appl  relativeSpeed  ETV
vector 24  scenario.node[1].appl  nodeId  ETV
vector 28  scenario.node[1].appl  acceleration  ETV
vector 29  scenario.node[1].appl  controllerAcceleration  ETV
vector 25  scenario.node[1].appl  speed  ETV
vector 26  scenario.node[1].appl  posx  ETV
vector 27  scenario.node[1].appl  posy  ETV
vector 44  scenario.node[2].appl  distance  ETV
vector 45  scenario.node[2].appl  relativeSpeed  ETV
vector 46  scenario.node[2].appl  nodeId  ETV
vector 50  scenario.node[2].appl  acceleration  ETV
vector 51  scenario.node[2].appl  controllerAcceleration  ETV
vector 47  scenario.node[2].appl  speed  ETV
vector 48  scenario.node[2].appl  posx  ETV
vector 49  scenario.node[2].appl  posy  ETV
vector 66  scenario.node[3].appl  distance  ETV
vector 67  scenario.node[3].appl  relativeSpeed  ETV
vector 68  scenario.node[3].appl  nodeId  ETV
vector 72  scenario.node[3].appl  acceleration  ETV
vector 73  scenario.node[3].appl  controllerAcceleration  ETV
vector 69  scenario.node[3].appl  speed  ETV
vector 70  scenario.node[3].appl  posx  ETV
vector 71  scenario.node[3].appl  posy  ETV
vector 88  scenario.node[4].appl  distance  ETV
vector 89  scenario.node[4].appl  relativeSpeed  ETV
vector 90  scenario.node[4].appl  nodeId  ETV
vector 94  scenario.node[4].appl  acceleration  ETV
vector 95  scenario.node[4].appl  controllerAcceleration  ETV
vector 91  scenario.node[4].appl  speed  ETV
vector 92  scenario.node[4].appl  posx  ETV
vector 93  scenario.node[4].appl  posy  ETV
vector 110  scenario.node[5].appl  distance  ETV
vector 111  scenario.node[5].appl  relativeSpeed  ETV
vector 112  scenario.node[5].appl  nodeId  ETV
vector 116  scenario.node[5].appl  acceleration  ETV
vector 117  scenario.node[5].appl  controllerAcceleration  ETV
vector 113  scenario.node[5].appl  speed  ETV
vector 114  scenario.node[5].appl  posx  ETV
vector 115  scenario.node[5].appl  posy  ETV
vector 132  scenario.node[6].appl  distance  ETV
vector 133  scenario.node[6].appl  relativeSpeed  ETV
vector 134  scenario.node[6].appl  nodeId  ETV
vector 138  scenario.node[6].appl  acceleration  ETV
vector 139  scenario.node[6].appl  controllerAcceleration  ETV
vector 135  scenario.node[6].appl  speed  ETV
vector 136  scenario.node[6].appl  posx  ETV
vector 137  scenario.node[6].appl  posy  ETV
vector 154  scenario.node[7].appl  distance  ETV
vector 155  scenario.node[7].appl  relativeSpeed  ETV
vector 156  scenario.node[7].appl  nodeId  ETV
vector 160  scenario.node[7].appl  acceleration  ETV
vector 161  scenario.node[7].appl  controllerAcceleration  ETV
vector 157  scenario.node[7].appl  speed  ETV
vector 158  scenario.node[7].appl  posx  ETV
vector 159  scenario.node[7].appl  posy  ETV
vector 80  scenario.node[3].prot  frontDelay  ETV
vector 78  scenario.node[3].prot  frontDelayId  ETV
vector 58  scenario.node[2].prot  frontDelay  ETV
vector 56  scenario.node[2].prot  frontDelayId  ETV
vector 168  scenario.node[7].prot  frontDelay  ETV
vector 166  scenario.node[7].prot  frontDelayId  ETV
vector 35  scenario.node[1].prot  leaderDelay  ETV
vector 33  scenario.node[1].prot  leaderDelayId  ETV
vector 36  scenario.node[1].prot  frontDelay  ETV
vector 34  scenario.node[1].prot  frontDelayId  ETV
vector 57  scenario.node[2].prot  leaderDelay  ETV
vector 55  scenario.node[2].prot  leaderDelayId  ETV
vector 79  scenario.node[3].prot  leaderDelay  ETV
vector 77  scenario.node[3].prot  leaderDelayId  ETV
vector 101  scenario.node[4].prot  leaderDelay  ETV
vector 99  scenario.node[4].prot  leaderDelayId  ETV
vector 123  scenario.node[5].prot  leaderDelay  ETV
vector 121  scenario.node[5].prot  leaderDelayId  ETV
vector 145  scenario.node[6].prot  leaderDelay  ETV
vector 143  scenario.node[6].prot  leaderDelayId  ETV
vector 167  scenario.node[7].prot  leaderDelay  ETV
vector 165  scenario.node[7].prot  leaderDelayId  ETV
vector 124  scenario.node[5].prot  frontDelay  ETV
vector 122  scenario.node[5].prot  frontDelayId  ETV
vector 102  scenario.node[4].prot  frontDelay  ETV
vector 100  scenario.node[4].prot  frontDelayId  ETV
vector 146  scenario.node[6].prot  frontDelay  ETV
vector 144  scenario.node[6].prot  frontDelayId  ETV
vector 8  scenario.node[0].prot  nodeId  ETV
vector 9  scenario.node[0].prot  busyTime  ETV
vector 10  scenario.node[0].prot  collisions  ETV
vector 30  scenario.node[1].prot  nodeId  ETV
vector 31  scenario.node[1].prot  busyTime  ETV
vector 32  scenario.node[1].prot  collisions  ETV
vector 52  scenario.node[2].prot  nodeId  ETV
vector 53  scenario.node[2].prot  busyTime  ETV
vector 54  scenario.node[2].prot  collisions  ETV
vector 74  scenario.node[3].prot  nodeId  ETV
vector 75  scenario.node[3].prot  busyTime  ETV
vector 76  scenario.node[3].prot  collisions  ETV
vector 96  scenario.node[4].prot  nodeId  ETV
vector 97  scenario.node[4].prot  busyTime  ETV
vector 98  scenario.node[4].prot  collisions  ETV
vector 118  scenario.node[5].prot  nodeId  ETV
vector 119  scenario.node[5].prot  busyTime  ETV
vector 120  scenario.node[5].prot  collisions  ETV
vector 140  scenario.node[6].prot  nodeId  ETV
vector 141  scenario.node[6].prot  busyTime  ETV
vector 142  scenario.node[6].prot  collisions  ETV
vector 162  scenario.node[7].prot  nodeId  ETV
vector 163  scenario.node[7].prot  busyTime  ETV
vector 164  scenario.node[7].prot  collisions  ETV
7	232	1.11	-1.264609664986e-06
7	788	1.21	-1.2370558053476e-06
7	1344	1.31	-1.1922643139428e-06
7	1900	1.41	-1.1341353030048e-06
7	2456	1.51	-1.0661075364737e-06
7	3012	1.61	-9.9117950469463e-07
7	3568	1.71	-9.1193474816009e-07
7	4124	1.81	-8.3057002342457e-07
7	4680	1.91	-7.4892560064654e-07
7	5244	2.01	-6.6851609403784e-07
7	5800	2.11	-5.9056183232542e-07
7	6356	2.21	-5.1602003736662e-07
7	6912	2.31	-4.4561458878434e-07
7	7468	2.41	-3.7986517753552e-07
7	8024	2.51	-3.1911461206846e-07
7	8580	2.61	-2.6355444049386e-07
7	9136	2.71	-2.1324864718508e-07
7	9692	2.81	-1.6815555881067e-07
7	10248	2.91	-1.2814749794643e-07
7	10812	3.01	-9.3028553749264e-08
7	11368	3.11	-6.255026363533e-08
7	11924	3.21	-3.6425589655664e-08
7	12480	3.31	-1.4340962195547e-08
7	13036	3.41	4.0332679418498e-09
7	13592	3.51	1.9034231968362e-08
7	14148	3.61	3.0998883460143e-08
7	14704	3.71	4.0258086642098e-08
7	15260	3.81	4.7131671010447e-08
7	15816	3.91	5.1925063360159e-08
7	16380	4.01	5.4926061920924e-08
7	16936	4.11	5.6402775783226e-08
7	17492	4.21	5.6602530662531e-08
7	18048	4.31	5.5751151251116e-08
7	18604	4.41	5.4052726738973e-08
7	19160	4.51	5.1689909241759e-08
7	19716	4.61	4.8824482234977e-08
7	20272	4.71	4.5598198994412e-08
7	20828	4.81	4.2133798672239e-08
7	21384	4.91	3.8536192903393e-08
7	21949	5.01	3.4893794520485e-08
7	22506	5.11	0.34814790229188
7	23063	5.21	0.68726938086839
7	23620	5.31	1.0064706392337
7	24177	5.41	1.2963311769431
7	24734	5.51	1.5
7	25291	5.61	1.5
7	25848	5.71	1.5
7	26405	5.81	1.5
7	26962	5.91	1.5
7	27527	6.01	1.5
7	28084	6.11	1.5
7	28641	6.21	1.5
7	29198	6.31	1.5
7	29755	6.41	1.5
7	30312	6.51	1.4919234166485
7	30869	6.61	1.2264993309071
7	31426	6.71	0.9230538423432
7	31983	6.81	0.58908102202894
7	32540	6.91	0.23235621850268
7	33105	7.01	-0.13919559587845
7	33662	7.11	-0.51762846369643
7	34219	7.21	-0.89509993758214
7	34776	7.31	-1.2639902868434
7	35333	7.41	-1.5
7	35890	7.51	-1.5
7	36447	7.61	-1.5
7	37004	7.71	-1.5
7	37561	7.81	-1.5
7	38118	7.91	-1.5
7	38683	8.01	-1.5
7	39240	8.11	-1.5
7	39797	8.21	-1.5
7	40354	8.31	-1.5
7	40911	8.41	-1.5
7	41468	8.51	-1.5
7	42025	8.61	-1.5
7	42582	8.71	-1.5
7	43139	8.81	-1.5
7	43696	8.91	-1.5
7	44261	9.01	-1.5
7	44818	9.11	-1.5
7	45375	9.21	-1.5
7	45932	9.31	-1.5
7	46489	9.41	-1.5
7	47046	9.51	-1.1784535903605
7	47603	9.61	-0.73985166412807
7	48160	9.71	-0.29046662052636
7	48717	9.81	0.1586820567595
7	49274	9.91	0.59737147696769
7	49839	10.01	1.0162504342412
7	50396	10.11	1.4069035499393
7	50953	10.21	1.5
7	51510	10.31	1.5
7	52067	10.41	1.5
7	52624	10.51	1.5
7	53181	10.61	1.5
7	53738	10.71	1.5
7	54295	10.81	1.5
7	54852	10.91	1.5
7	55417	11.01	1.5
7	55974	11.11	1.5
7	56531	11.21	1.5
7	57088	11.31	1.5
7	57645	11.41	1.5
7	58202	11.51	1.5
7	58759	11.61	1.5
7	59316	11.71	1.5
7	59873	11.81	1.5
7	60430	11.91	1.1420569523654
7	60995	12.01	0.73271074176932
7	61552	12.11	0.30763491705864
7	62109	12.21	-0.12290183397916
7	62666	12.31	-0.54917422862574
7	63223	12.41	-0.96209331714029
7	63780	12.51	-1.3532900275071
7	64337	12.61	-1.5
7	64894	12.71	-1.5
7	65451	12.81	-1.5
7	66008	12.91	-1.5
7	66573	13.01	-1.5
7	67130	13.11	-1.5
7	67687	13.21	-1.5
7	68244	13.31	-1.5
7	68801	13.41	-1.5
7	69358	13.51	-1.5
7	69915	13.61	-1.5
7	70472	13.71	-1.5
7	71029	13.81	-1.5
7	71586	13.91	-1.5
7	72151	14.01	-1.5
7	72708	14.11	-1.5
7	73265	14.21	-1.5
7	73822	14.31	-1.5
7	74379	14.41	-1.3008305793046
7	74936	14.51	-0.88835736019924
7	75493	14.61	-0.45792464373664
7	76050	14.71	-0.020297800469415
7	76607	14.81	0.41435934758473
7	77164	14.91	0.83657487485725
7	77729	15.01	1.2376491839042
7	78286	15.11	1.5
7	78843	15.21	1.5
7	79400	15.31	1.5
7	79957	15.41	1.5
7	80514	15.51	1.5
7	81071	15.61	1.5
7	81628	15.71	1.5
7	82185	15.81	1.5
7	82742	15.91	1.5
7	83307	16.01	1.5
7	83864	16.11	1.5
7	84421	16.21	1.5
7	84978	16.31	1.5
7	85535	16.41	1.5
7	86092	16.51	1.5
7	86649	16.61	1.5
7	87206	16.71	1.5
7	87763	16.81	1.5
7	88320	16.91	1.2451238477419
7	88885	17.01	0.83347870135727
7	89442	17.11	0.40470958877236
7	89999	17.21	-0.030598062215738
7	90556	17.31	-0.46243980386358
7	91113	17.41	-0.88148335304344
7	91670	17.51	-1.2791500631696
7	92227	17.61	-1.5
7	92784	17.71	-1.5
7	93341	17.81	-1.5
7	93898	17.91	-1.5
7	94463	18.01	-1.5
7	95020	18.11	-1.5
7	95577	18.21	-1.5
7	96134	18.31	-1.5
7	96691	18.41	-1.5
7	97248	18.51	-1.5
7	97805	18.61	-1.5
7	98362	18.71	-1.5
7	98919	18.81	-1.5
7	99476	18.91	-1.5
7	100041	19.01	-1.5
7	100598	19.11	-1.5
7	101155	19.21	-1.5
7	101712	19.31	-1.5
7	102269	19.41	-1.2657245815119
7	102826	19.51	-0.85377693481423
7	103383	19.61	-0.42439560038014
7	103940	19.71	0.011767371268903
7	104497	19.81	0.44464851836469
7	105054	19.91	0.86486384400589
7	105619	20.01	1.2637899041132
7	106176	20.11	1.5
7	106733	20.21	1.5
7	107290	20.31	1.5
7	107847	20.41	1.5
7	108404	20.51	1.5
7	108961	20.61	1.5
7	109518	20.71	1.5
7	110075	20.81	1.5
7	110632	20.91	1.5
7	111197	21.01	1.5
7	111754	21.11	1.5
7	112311	21.21	1.5
7	112868	21.31	1.5
7	113425	21.41	1.5
7	113982	21.51	1.5
7	114539	21.61	1.5
7	115096	21.71	1.5
7	115653	21.81	1.5
7	116210	21.91	1.2580915517757
7	116775	22.01	0.84625491634767
7	117332	22.11	0.41709956367446
7	117889	22.21	-0.01874716354331
7	118446	22.31	-0.45124369149482
7	119003	22.41	-0.87102520538662
7	119560	22.51	-1.2694848794604
7	120117	22.61	-1.5
7	120674	22.71	-1.5
7	121231	22.81	-1.5
7	121788	22.91	-1.5
7	122353	23.01	-1.5
7	122910	23.11	-1.5
7	123467	23.21	-1.5
7	124024	23.31	-1.5
7	124581	23.41	-1.5
7	125138	23.51	-1.5
7	125695	23.61	-1.5
7	126252	23.71	-1.5
7	126809	23.81	-1.5
7	127366	23.91	-1.5
7	127931	24.01	-1.5
7	128488	24.11	-1.5
7	129045	24.21	-1.5
7	129602	24.31	-1.5
7	130159	24.41	-1.2609239651136
7	130716	24.51	-0.84904615684721
7	131273	24.61	-0.41980696481297
7	131830	24.71	0.0161570994443
7	132387	24.81	0.44879633965842
7	132944	24.91	0.86873882266714
7	133509	25.01	1.267371555718
7	134066	25.11	1.5
7	134623	25.21	1.5
7	135180	25.31	1.5
7	135737	25.41	1.5
7	136294	25.51	1.5
7	136851	25.61	1.5
7	137408	25.71	1.5
7	137965	25.81	1.5
7	138522	25.91	1.5
7	139087	26.01	1.5
7	139644	26.11	1.5
7	140201	26.21	1.5
7	140758	26.31	1.5
7	141315	26.41	1.5
7	141872	26.51	1.5
7	142429	26.61	1.5
7	142986	26.71	1.5
7	143543	26.81	1.5
7	144100	26.91	1.259872851865
7	144665	27.01	0.84801032251606
7	145222	27.11	0.41880224309333
7	145779	27.21	-0.017118277439927
7	146336	27.31	-0.449704557082
7	146893	27.41	-0.86958730431672
7	147450	27.51	-1.2681558149805
7	148007	27.61	-1.5
7	148564	27.71	-1.5
7	149121	27.81	-1.5
7	149678	27.91	-1.5
7	150243	28.01	-1.5
7	150800	28.11	-1.5
7	151357	28.21	-1.5
7	151914	28.31	-1.5
7	152471	28.41	-1.5
7	153028	28.51	-1.5
7	153585	28.61	-1.5
7	154142	28.71	-1.5
7	154699	28.81	-1.5
7	155256	28.91	-1.5
7	155821	29.01	-1.5
7	156378	29.11	-1.5
7	156935	29.21	-1.5
7	157492	29.31	-1.5
7	158049	29.41	-1.2602629232498
7	158606	29.51	-0.84839472385467
7	159163	29.61	-0.41917509845132
7	159720	29.71	0.016761581288272
7	160277	29.81	0.44936751475921
7	160834	29.91	0.8692724301223
7	161399	30.01	1.2678647739114
7	161956	30.11	1.5
7	162513	30.21	1.5
7	163070	30.31	1.5
7	163627	30.41	1.5
7	164184	30.51	1.5
7	164741	30.61	1.5
7	165298	30.71	1.5
7	165855	30.81	1.5
7	166412	30.91	1.5
7	166977	31.01	1.5
7	167534	31.11	1.5
7	168091	31.21	1.5
7	168648	31.31	1.5
7	169205	31.41	1.5
7	169762	31.51	1.5
7	170319	31.61	1.5
7	170876	31.71	1.5
7	171433	31.81	1.5
7	171990	31.91	1.2601181665227
7	172555	32.01	0.84825207129943
7	173112	32.11	0.41903673064581
7	173669	32.21	-0.016893952361286
7	174226	32.31	-0.44949259223436
7	174783	32.41	-0.86938928093497
7	175340	32.51	-1.2679727801759
7	175897	32.61	-1.5
7	176454	32.71	-1.5
7	177011	32.81	-1.5
7	177568	32.91	-1.5
7	178133	33.01	-1.5
7	178690	33.11	-1.5
7	179247	33.21	-1.5
7	179804	33.31	-1.5
7	180361	33.41	-1.5
7	180918	33.51	-1.5
7	181475	33.61	-1.5
7	182032	33.71	-1.5
7	182589	33.81	-1.5
7	183146	33.91	-1.5
7	183711	34.01	-1.5
7	184268	34.11	-1.5
7	184825	34.21	-1.5
7	185382	34.31	-1.5
7	185939	34.41	-1.2601718862024
7	186496	34.51	-0.8483050101143
7	187053	34.61	-0.41908807937658
7	187610	34.71	0.01684482903692
7	188167	34.81	0.44944617558719
7	188724	34.91	0.86934591722818
7	189289	35.01	1.2679326987088
7	189846	35.11	1.5
7	190403	35.21	1.5
7	190960	35.31	1.5
7	191517	35.41	1.5
7	192074	35.51	1.5
7	192631	35.61	1.5
7	193188	35.71	1.5
7	193745	35.81	1.5
7	194302	35.91	1.5
7	194867	36.01	1.5
7	195424	36.11	1.5
7	195981	36.21	1.5
7	196538	36.31	1.5
7	197095	36.41	1.5
7	197652	36.51	1.5
7	198209	36.61	1.5
7	198766	36.71	1.5
7	199323	36.81	1.5
7	199880	36.91	1.2601519506581
7	200445	37.01	0.84828536435142
7	201002	37.11	0.4190690236989
7	201559	37.21	-0.016863058859194
7	202116	37.31	-0.44946340095288
7	202673	37.41	-0.86936200963796
7	203230	37.51	-1.267947573069
7	203787	37.61	-1.5
7	204344	37.71	-1.5
7	204901	37.81	-1.5
7	205458	37.91	-1.5
7	206023	38.01	-1.5
7	206580	38.11	-1.5
7	207137	38.21	-1.5
7	207694	38.31	-1.5
7	208251	38.41	-1.5
7	208808	38.51	-1.5
7	209365	38.61	-1.5
7	209922	38.71	-1.5
7	210479	38.81	-1.5
7	211036	38.91	-1.5
7	211601	39.01	-1.5
7	212158	39.11	-1.5
7	212715	39.21	-1.5
7	213272	39.31	-1.5
7	213829	39.41	-1.2601593487988
7	214386	39.51	-0.84829265495311
7	214943	39.61	-0.41907609531799
7	215500	39.71	0.016856293717773
7	216057	39.81	0.44945700856863
7	216614	39.91	0.86935603769736
7	217179	40.01	1.2679420531504
7	217736	40.11	1.5
7	218293	40.21	1.5
7	218850	40.31	1.5
7	219407	40.41	1.5
7	219964	40.51	1.5
6	232	1.11	-1.8587371641843e-07
6	788	1.21	-3.7715039979958e-07
6	1344	1.31	-5.2730015909219e-07
6	1900	1.41	-6.4101826069418e-07
6	2456	1.51	-7.2280812446479e-07
6	3012	1.61	-7.7694011224594e-07
6	3568	1.71	-8.0741315855448e-07
6	4124	1.81	-8.1792990158647e-07
6	4680	1.91	-8.1188602507609e-07
6	5244	2.01	-7.9236670558203e-07
6	5800	2.11	-7.6214163868826e-07
6	6356	2.21	-7.2367640768789e-07
6	6912	2.31	-6.7914172063865e-07
6	7468	2.41	-6.3042691067494e-07
6	8024	2.51	-5.791562784907e-07
6	8580	2.61	-5.2670969807878e-07
6	9136	2.71	-4.7423895921384e-07
6	9692	2.81	-4.226883731917e-07
6	10248	2.91	-3.7281679965417e-07
6	10812	3.01	-3.2521825232834e-07
6	11368	3.11	-2.8033753096679e-07
6	11924	3.21	-2.3849224817241e-07
6	12480	3.31	-1.9988561916762e-07
6	13036	3.41	-1.6463133079014e-07
6	13592	3.51	-1.3275709420668e-07
6	14148	3.61	-1.0422880336591e-07
6	14704	3.71	-7.8954798254927e-08
6	15260	3.81	-5.6805049553077e-08
6	15816	3.91	-3.7617553516611e-08
6	16380	4.01	-2.1201884692346e-08
6	16936	4.11	-7.354117315117e-09
6	17492	4.21	4.1374903503311e-09
6	18048	4.31	1.3491074923877e-08
6	18604	4.41	2.0921930854456e-08
6	19160	4.51	2.6641799877325e-08
6	19716	4.61	3.0856028843118e-08
6	20272	4.71	3.3759306461434e-08
6	20828	4.81	3.5534952758098e-08
6	21384	4.91	3.6354919075166e-08
6	21949	5.01	3.6375524814503e-08
6	22506	5.11	0.0068264645847194
6	23063	5.21	0.074594848256737
6	23620	5.31	0.19005135781356
6	24177	5.41	0.34050273679327
6	24734	5.51	0.51301639903159
6	25291	5.61	0.69025459358016
6	25848	5.71	0.8357267325124
6	26405	5.81	0.95506455436478
6	26962	5.91	1.0529631336311
6	27527	6.01	1.1332740666944
6	28084	6.11	1.1991570040927
6	28641	6.21	1.2532039597787
6	29198	6.31	1.2975412879882
6	29755	6.41	1.3339133398063
6	30312	6.51	1.3635927262982
6	30869	6.61	1.370205363024
6	31426	6.71	1.3272611941339
6	31983	6.81	1.237381093641
6	32540	6.91	1.1040433769786
6	33105	7.01	0.9314709214955
6	33662	7.11	0.72451590696545
6	34219	7.21	0.48854318469935
6	34776	7.31	0.22931329740459
6	35333	7.41	-0.044839397355645
6	35890	7.51	-0.30626147357466
6	36447	7.61	-0.52071862935179
6	37004	7.71	-0.69664819248914
6	37561	7.81	-0.84097171050672
6	38118	7.91	-0.95936726314534
6	38683	8.01	-1.0564928534642
6	39240	8.11	-1.1361696663563
6	39797	8.21	-1.2015324043531
6	40354	8.31	-1.255152615343
6	40911	8.41	-1.299139864269
6	41468	8.51	-1.3352247291408
6	42025	8.61	-1.3648268866902
6	42582	8.71	-1.3891109663092
6	43139	8.81	-1.4090323697367
6	43696	8.91	-1.4253748591699
6	44261	9.01	-1.4387813925914
6	44818	9.11	-1.4497794194909
6	45375	9.21	-1.4588016321618
6	45932	9.31	-1.466202988987
6	46489	9.41	-1.4722746794739
6	47046	9.51	-1.469624914661
6	47603	9.61	-1.3967850638842
6	48160	9.71	-1.2587757640922
6	48717	9.81	-1.0660952217464
6	49274	9.91	-0.82923335013376
6	49839	10.01	-0.55852907828324
6	50396	10.11	-0.26404116063858
6	50953	10.21	0.039432698787323
6	51510	10.31	0.30182609759564
6	52067	10.41	0.51708007620732
6	52624	10.51	0.69366331160268
6	53181	10.61	0.83852306854624
6	53738	10.71	0.95735852387477
6	54295	10.81	1.0548449876183
6	54852	10.91	1.1348178424115
6	55417	11.01	1.2004234378772
6	55974	11.11	1.2542428765791
6	56531	11.21	1.2983935616198
6	57088	11.31	1.3346125010308
6	57645	11.41	1.3643246463992
6	58202	11.51	1.3886989543394
6	58759	11.61	1.4086943764177
6	59316	11.71	1.425097586926
6	59873	11.81	1.4385539327783
6	60430	11.91	1.434562737289
6	60995	12.01	1.3623449188863
6	61552	12.11	1.229987565462
6	62109	12.21	1.0461448397947
6	62666	12.31	0.81967864250814
6	63223	12.41	0.55952045906622
6	63780	12.51	0.27454262951352
6	64337	12.61	-0.022341644856283
6	64894	12.71	-0.28780548056062
6	65451	12.81	-0.50557828686024
6	66008	12.91	-0.68422783826705
6	66573	13.01	-0.83078269403671
6	67130	13.11	-0.95100872080636
6	67687	13.21	-1.049635937467
6	68244	13.31	-1.1305446069755
6	68801	13.41	-1.1969178964527
6	69358	13.51	-1.2513671116331
6	69915	13.61	-1.2960344327361
6	70472	13.71	-1.3326771936626
6	71029	13.81	-1.3627370202911
6	71586	13.91	-1.3873965479604
6	72151	14.01	-1.4076259495589
6	72708	14.11	-1.4242211047687
6	73265	14.21	-1.4378349121301
6	73822	14.31	-1.4490029758548
6	74379	14.41	-1.4542593951845
6	74936	14.51	-1.4067454390002
6	75493	14.61	-1.2938574955257
6	76050	14.71	-1.1248409052179
6	76607	14.81	-0.90912582141769
6	77164	14.91	-0.65618298375156
6	77729	15.01	-0.37539052552589
6	78286	15.11	-0.078063005077667
6	78843	15.21	0.20543869668828
6	79400	15.31	0.43800883574505
6	79957	15.41	0.62879735392087
6	80514	15.51	0.78531039044307
6	81071	15.61	0.91370559386164
6	81628	15.71	1.0190343806975
6	82185	15.81	1.1054406719069
6	82742	15.91	1.1763239259999
6	83307	16.01	1.2344728829831
6	83864	16.11	1.2821752809849
6	84421	16.21	1.3213078620858
6	84978	16.31	1.353410208462
6	85535	16.41	1.3797453137336
6	86092	16.51	1.4013492725695
6	86649	16.61	1.4190720434712
6	87206	16.71	1.4336108884486
6	87763	16.81	1.4455378052077
6	88320	16.91	1.4502949065331
6	88885	17.01	1.3935559567543
6	89442	17.11	1.2733368701461
6	89999	17.21	1.0986742440551
6	90556	17.31	0.8787967659174
6	91113	17.41	0.6229832927616
6	91670	17.51	0.34043137853601
6	92227	17.61	0.043031849082098
6	92784	17.71	-0.23417644595227
6	93341	17.81	-0.46158379949475
6	93898	17.91	-0.64813703535265
6	94463	18.01	-0.80117566522517
6	95020	18.11	-0.92672064505592
6	95577	18.21	-1.0297112558185
6	96134	18.31	-1.114199428261
6	96691	18.41	-1.1835091568827
6	97248	18.51	-1.2403672749222
6	97805	18.61	-1.2870107353905
6	98362	18.71	-1.3252746188861
6	98919	18.81	-1.3566643306582
6	99476	18.91	-1.3824148273436
6	100041	19.01	-1.4035392035204
6	100598	19.11	-1.420868549603
6	101155	19.21	-1.4350846492
6	101712	19.31	-1.4467468023348
6	102269	19.41	-1.4517201941764
6	102826	19.51	-1.3984004323881
6	103383	19.61	-1.2808993810083
6	103940	19.71	-1.1083308503771
6	104497	19.81	-0.88999806036725
6	105054	19.91	-0.63525086466711
6	105619	20.01	-0.35335363991251
6	106176	20.11	-0.055983891306255
6	106733	20.21	0.22355126013451
6	107290	20.31	0.45286744637352
6	107847	20.41	0.64098658988883
6	108404	20.51	0.7953098094454
6	108961	20.61	0.92190860023962
6	109518	20.71	1.025763703035
6	110075	20.81	1.110961060045
6	110632	20.91	1.1808525670219
6	111197	21.01	1.2381879459468
6	111754	21.11	1.2852229265718
6	112311	21.21	1.3238079929607
6	112868	21.31	1.3554611865736
6	113425	21.41	1.3814278301389
6	113982	21.51	1.4027295220423
6	114539	21.61	1.4202043287803
6	115096	21.71	1.4345397567773
6	115653	21.81	1.4462998007623
6	116210	21.91	1.4512038299465
6	116775	22.01	1.3966149622043
6	117332	22.11	1.2781048258539
6	117889	22.21	1.104758616826
6	118446	22.31	0.88585193074024
6	119003	22.41	0.63070830476164
6	119560	22.51	0.34856734381066
6	120117	22.61	0.0511856543703
6	120674	22.71	-0.2274874856468
6	121231	22.81	-0.45609652228009
6	121788	22.91	-0.64363555681837
6	122353	23.01	-0.79748288496049
6	122910	23.11	-0.9236912790449
6	123467	23.21	-1.0272261205607
6	124024	23.31	-1.1121607517772
6	124581	23.41	-1.1818367320956
6	125138	23.51	-1.2389953040916
6	125695	23.61	-1.2858852414524
6	126252	23.71	-1.3243513218463
6	126809	23.81	-1.355906905502
6	127366	23.91	-1.3817934749042
6	127931	24.01	-1.403029478103
6	128488	24.11	-1.4204503972238
6	129045	24.21	-1.4347416186069
6	129602	24.31	-1.4464653977718
6	130159	24.41	-1.4513952146871
6	130716	24.51	-1.397277320676
6	131273	24.61	-1.2791416668563
6	131830	24.71	-1.1060840673032
6	132387	24.81	-0.88739036841687
6	132944	24.91	-0.63239387292811
6	133509	25.01	-0.35034337811126
6	134066	25.11	-0.052966136912147
6	134623	25.21	0.22602686982154
6	135180	25.31	0.45489830857193
6	135737	25.41	0.64265260423966
6	136294	25.51	0.7966765214853
6	136851	25.61	0.92302978013734
6	137408	25.71	1.0266834610576
6	137965	25.81	1.1117155819754
6	138522	25.91	1.1814715378058
6	139087	26.01	1.2386957175771
6	139644	26.11	1.2856394761641
6	140201	26.21	1.3241497087101
6	140758	26.31	1.3557415125085
6	141315	26.41	1.3816577950429
6	141872	26.51	1.4029181733591
6	142429	26.61	1.4203590885664
6	142986	26.71	1.4346667137048
6	143543	26.81	1.4464039496623
6	144100	26.91	1.4513241957715
6	144665	27.01	1.3970315218245
6	145222	27.11	1.2787568961947
6	145779	27.21	1.1055921925461
6	146336	27.31	0.8868194531928
6	146893	27.41	0.63176835684402
6	147450	27.51	0.34968428947408
6	148007	27.61	0.052305397196051
6	148564	27.71	-0.22656890652399
6	149121	27.81	-0.45534296745871
6	149678	27.91	-0.64301737940156
6	150243	28.01	-0.79697576417033
6	150800	28.11	-0.92327526336575
6	151357	28.21	-1.0268848428062
6	151914	28.31	-1.1118807851517
6	152471	28.41	-1.1816070619503
6	153028	28.51	-1.2388068945782
6	153585	28.61	-1.2857306800278
6	154142	28.71	-1.3242245276466
6	154699	28.81	-1.3558028900952
6	155256	28.91	-1.3817081460417
6	155821	29.01	-1.4029594787168
6	156378	29.11	-1.4203929733462
6	156935	29.21	-1.4346945110262
6	157492	29.31	-1.446426753148
6	158049	29.41	-1.4513505510308
6	158606	29.51	-1.3971227384744
6	159163	29.61	-1.2788996857282
6	159720	29.71	-1.1057747287524
6	160277	29.81	-0.88703132157306
6	160834	29.91	-0.63200048778214
6	161399	30.01	-0.34992887929945
6	161956	30.11	-0.052550599747292
6	162513	30.21	0.22636775502605
6	163070	30.31	0.45517795316883
6	163627	30.41	0.64288201020943
6	164184	30.51	0.79686471428317
6	164741	30.61	0.92318416377992
6	165298	30.71	1.0268101094155
6	165855	30.81	1.1118194777403
6	166412	30.91	1.181556768519
6	166977	31.01	1.2387656364474
6	167534	31.11	1.2856968339904
6	168091	31.21	1.3241967621056
6	168648	31.31	1.3557801126808
6	169205	31.41	1.3816894606293
6	169762	31.51	1.4029441501705
6	170319	31.61	1.4203803985993
6	170876	31.71	1.434684195354
6	171433	31.81	1.4464182907048
6	171990	31.91	1.4513407705138
6	172555	32.01	1.3970888876891
6	173112	32.11	1.2788466960821
6	173669	32.21	1.1057069889901
6	174226	32.31	0.88695269654835
6	174783	32.41	0.63191434325702
6	175340	32.51	0.3498381112415
6	175897	32.61	0.052459604304289
6	176454	32.71	-0.22644240298533
6	177011	32.81	-0.45523919049515
6	177568	32.91	-0.64293224614715
6	178133	33.01	-0.79690592524955
6	178690	33.11	-0.92321797112547
6	179247	33.21	-1.0268378432137
6	179804	33.31	-1.1118422291148
6	180361	33.41	-1.1815754325717
6	180918	33.51	-1.2387809474724
6	181475	33.61	-1.2857093943644
6	182032	33.71	-1.3242070659885
6	182589	33.81	-1.3557885654535
6	183146	33.91	-1.3816963948479
6	183711	34.01	-1.4029498386442
6	184268	34.11	-1.4203850651299
6	184825	34.21	-1.4346880235344
6	185382	34.31	-1.4464214311445
6	185939	34.41	-1.4513444000933
6	186496	34.51	-1.3971014498217
6	187053	34.61	-1.2788663607076
6	187610	34.71	-1.1057321274301
6	188167	34.81	-0.88698187454312
6	188724	34.91	-0.63194631176131
6	189289	35.01	-0.34987179555372
6	189846	35.11	-0.052493373000573
6	190403	35.21	0.22641470089155
6	190960	35.31	0.45521646513009
6	191517	35.41	0.64291360343205
6	192074	35.51	0.79689063173021
6	192631	35.61	0.92320542511359
6	193188	35.71	1.0268275511145
6	193745	35.81	1.1118337860083
6	194302	35.91	1.1815685062835
6	194867	36.01	1.2387752655023
6	195424	36.11	1.2857047331693
6	195981	36.21	1.3242032421843
6	196538	36.31	1.3557854286027
6	197095	36.41	1.3816938215371
6	197652	36.51	1.4029477276331
6	198209	36.61	1.4203833333653
6	198766	36.71	1.4346866028845
6	199323	36.81	1.4464202657166
6	199880	36.91	1.4513430531451
6	200445	37.01	1.397096787975
6	201002	37.11	1.2788590631018
6	201559	37.21	1.105722798475
6	202116	37.31	0.88697104649569
6	202673	37.41	0.63193444814758
6	203230	37.51	0.34985929519777
6	203787	37.61	0.052480841328872
6	204344	37.71	-0.22642498122849
6	204901	37.81	-0.4552248985874
6	205458	37.91	-0.64292052180548
6	206023	38.01	-0.79689630720523
6	206580	38.11	-0.92321008097898
6	207137	38.21	-1.0268313705467
6	207694	38.31	-1.1118369192744
6	208251	38.41	-1.1815710766527
6	208808	38.51	-1.2387773741011
6	209365	38.61	-1.2857064629564
6	209922	38.71	-1.3242046612127
6	210479	38.81	-1.3557865927005
6	211036	38.91	-1.3816947765022
6	211601	39.01	-1.4029485110377
6	212158	39.11	-1.4203839760292
6	212715	39.21	-1.4346871300937
6	213272	39.31	-1.4464206982126
6	213829	39.41	-1.4513435530041
6	214386	39.51	-1.3970985180023
6	214943	39.61	-1.278861771268
6	215500	39.71	-1.1057262604808
6	216057	39.81	-0.88697506482021
6	216614	39.91	-0.63193885077268
6	217179	40.01	-0.34986393411884
6	217736	40.11	-0.052485491870868
6	218293	40.21	0.22642116616325
6	218850	40.31	0.455221768906
6	219407	40.41	0.64291795437512
6	219964	40.51	0.79689420101801
5	232	1.11	36.55
5	788	1.21	36.55
5	1344	1.31	36.55
5	1900	1.41	36.55
5	2456	1.51	36.55
5	3012	1.61	36.55
5	3568	1.71	36.55
5	4124	1.81	36.55
5	4680	1.91	36.55
5	5244	2.01	36.55
5	5800	2.11	36.55
5	6356	2.21	36.55
5	6912	2.31	36.55
5	7468	2.41	36.55
5	8024	2.51	36.55
5	8580	2.61	36.55
5	9136	2.71	36.55
5	9692	2.81	36.55
5	10248	2.91	36.55
5	10812	3.01	36.55
5	11368	3.11	36.55
5	11924	3.21	36.55
5	12480	3.31	36.55
5	13036	3.41	36.55
5	13592	3.51	36.55
5	14148	3.61	36.55
5	14704	3.71	36.55
5	15260	3.81	36.55
5	15816	3.91	36.55
5	16380	4.01	36.55
5	16936	4.11	36.55
5	17492	4.21	36.55
5	18048	4.31	36.55
5	18604	4.41	36.55
5	19160	4.51	36.55
5	19716	4.61	36.55
5	20272	4.71	36.55
5	20828	4.81	36.55
5	21384	4.91	36.55
5	21949	5.01	36.55
5	22506	5.11	36.55
5	23063	5.21	36.55
5	23620	5.31	36.55
5	24177	5.41	36.55
5	24734	5.51	36.55
5	25291	5.61	36.55
5	25848	5.71	36.55
5	26405	5.81	36.55
5	26962	5.91	36.55
5	27527	6.01	36.55
5	28084	6.11	36.55
5	28641	6.21	36.55
5	29198	6.31	36.55
5	29755	6.41	36.55
5	30312	6.51	36.55
5	30869	6.61	36.55
5	31426	6.71	36.55
5	31983	6.81	36.55
5	32540	6.91	36.55
5	33105	7.01	36.55
5	33662	7.11	36.55
5	34219	7.21	36.55
5	34776	7.31	36.55
5	35333	7.41	36.55
5	35890	7.51	36.55
5	36447	7.61	36.55
5	37004	7.71	36.55
5	37561	7.81	36.55
5	38118	7.91	36.55
5	38683	8.01	36.55
5	39240	8.11	36.55
5	39797	8.21	36.55
5	40354	8.31	36.55
5	40911	8.41	36.55
5	41468	8.51	36.55
5	42025	8.61	36.55
5	42582	8.71	36.55
5	43139	8.81	36.55
5	43696	8.91	36.55
5	44261	9.01	36.55
5	44818	9.11	36.55
5	45375	9.21	36.55
5	45932	9.31	36.55
5	46489	9.41	36.55
5	47046	9.51	36.55
5	47603	9.61	36.55
5	48160	9.71	36.55
5	48717	9.81	36.55
5	49274	9.91	36.55
5	49839	10.01	36.55
5	50396	10.11	36.55
5	50953	10.21	36.55
5	51510	10.31	36.55
5	52067	10.41	36.55
5	52624	10.51	36.55
5	53181	10.61	36.55
5	53738	10.71	36.55
5	54295	10.81	36.55
5	54852	10.91	36.55
5	55417	11.01	36.55
5	55974	11.11	36.55
5	56531	11.21	36.55
5	57088	11.31	36.55
5	57645	11.41	36.55
5	58202	11.51	36.55
5	58759	11.61	36.55
5	59316	11.71	36.55
5	59873	11.81	36.55
5	60430	11.91	36.55
5	60995	12.01	36.55
5	61552	12.11	36.55
5	62109	12.21	36.55
5	62666	12.31	36.55
5	63223	12.41	36.55
5	63780	12.51	36.55
5	64337	12.61	36.55
5	64894	12.71	36.55
5	65451	12.81	36.55
5	66008	12.91	36.55
5	66573	13.01	36.55
5	67130	13.11	36.55
5	67687	13.21	36.55
5	68244	13.31	36.55
5	68801	13.41	36.55
5	69358	13.51	36.55
5	69915	13.61	36.55
5	70472	13.71	36.55
5	71029	13.81	36.55
5	71586	13.91	36.55
5	72151	14.01	36.55
5	72708	14.11	36.55
5	73265	14.21	36.55
5	73822	14.31	36.55
5	74379	14.41	36.55
5	74936	14.51	36.55
5	75493	14.61	36.55
5	76050	14.71	36.55
5	76607	14.81	36.55
5	77164	14.91	36.55
5	77729	15.01	36.55
5	78286	15.11	36.55
5	78843	15.21	36.55
5	79400	15.31	36.55
5	79957	15.41	36.55
5	80514	15.51	36.55
5	81071	15.61	36.55
5	81628	15.71	36.55
5	82185	15.81	36.55
5	82742	15.91	36.55
5	83307	16.01	36.55
5	83864	16.11	36.55
5	84421	16.21	36.55
5	84978	16.31	36.55
5	85535	16.41	36.55
5	86092	16.51	36.55
5	86649	16.61	36.55
5	87206	16.71	36.55
5	87763	16.81	36.55
5	88320	16.91	36.55
5	88885	17.01	36.55
5	89442	17.11	36.55
5	89999	17.21	36.55
5	90556	17.31	36.55
5	91113	17.41	36.55
5	91670	17.51	36.55
5	92227	17.61	36.55
5	92784	17.71	36.55
5	93341	17.81	36.55
5	93898	17.91	36.55
5	94463	18.01	36.55
5	95020	18.11	36.55
5	95577	18.21	36.55
5	96134	18.31	36.55
5	96691	18.41	36.55
5	97248	18.51	36.55
5	97805	18.61	36.55
5	98362	18.71	36.55
5	98919	18.81	36.55
5	99476	18.91	36.55
5	100041	19.01	36.55
5	100598	19.11	36.55
5	101155	19.21	36.55
5	101712	19.31	36.55
5	102269	19.41	36.55
5	102826	19.51	36.55
5	103383	19.61	36.55
5	103940	19.71	36.55
5	104497	19.81	36.55
5	105054	19.91	36.55
5	105619	20.01	36.55
5	106176	20.11	36.55
5	106733	20.21	36.55
5	107290	20.31	36.55
5	107847	20.41	36.55
5	108404	20.51	36.55
5	108961	20.61	36.55
5	109518	20.71	36.55
5	110075	20.81	36.55
5	110632	20.91	36.55
5	111197	21.01	36.55
5	111754	21.11	36.55
5	112311	21.21	36.55
5	112868	21.31	36.55
5	113425	21.41	36.55
5	113982	21.51	36.55
5	114539	21.61	36.55
5	115096	21.71	36.55
5	115653	21.81	36.55
5	116210	21.91	36.55
5	116775	22.01	36.55
5	117332	22.11	36.55
5	117889	22.21	36.55
5	118446	22.31	36.55
5	119003	22.41	36.55
5	119560	22.51	36.55
5	120117	22.61	36.55
5	120674	22.71	36.55
5	121231	22.81	36.55
5	121788	22.91	36.55
5	122353	23.01	36.55
5	122910	23.11	36.55
5	123467	23.21	36.55
5	124024	23.31	36.55
5	124581	23.41	36.55
5	125138	23.51	36.55
5	125695	23.61	36.55
5	126252	23.71	36.55
5	126809	23.81	36.55
5	127366	23.91	36.55
5	127931	24.01	36.55
5	128488	24.11	36.55
5	129045	24.21	36.55
5	129602	24.31	36.55
5	130159	24.41	36.55
5	130716	24.51	36.55
5	131273	24.61	36.55
5	131830	24.71	36.55
5	132387	24.81	36.55
5	132944	24.91	36.55
5	133509	25.01	36.55
5	134066	25.11	36.55
5	134623	25.21	36.55
5	135180	25.31	36.55
5	135737	25.41	36.55
5	136294	25.51	36.55
5	136851	25.61	36.55
5	137408	25.71	36.55
5	137965	25.81	36.55
5	138522	25.91	36.55
5	139087	26.01	36.55
5	139644	26.11	36.55
5	140201	26.21	36.55
5	140758	26.31	36.55
5	141315	26.41	36.55
5	141872	26.51	36.55
5	142429	26.61	36.55
5	142986	26.71	36.55
5	143543	26.81	36.55
5	144100	26.91	36.55
5	144665	27.01	36.55
5	145222	27.11	36.55
5	145779	27.21	36.55
5	146336	27.31	36.55
5	146893	27.41	36.55
5	147450	27.51	36.55
5	148007	27.61	36.55
5	148564	27.71	36.55
5	149121	27.81	36.55
5	149678	27.91	36.55
5	150243	28.01	36.55
5	150800	28.11	36.55
5	151357	28.21	36.55
5	151914	28.31	36.55
5	152471	28.41	36.55
5	153028	28.51	36.55
5	153585	28.61	36.55
5	154142	28.71	36.55
5	154699	28.81	36.55
5	155256	28.91	36.55
5	155821	29.01	36.55
5	156378	29.11	36.55
5	156935	29.21	36.55
5	157492	29.31	36.55
5	158049	29.41	36.55
5	158606	29.51	36.55
5	159163	29.61	36.55
5	159720	29.71	36.55
5	160277	29.81	36.55
5	160834	29.91	36.55
5	161399	30.01	36.55
5	161956	30.11	36.55
5	162513	30.21	36.55
5	163070	30.31	36.55
5	163627	30.41	36.55
5	164184	30.51	36.55
5	164741	30.61	36.55
5	165298	30.71	36.55
5	165855	30.81	36.55
5	166412	30.91	36.55
5	166977	31.01	36.55
5	167534	31.11	36.55
5	168091	31.21	36.55
5	168648	31.31	36.55
5	169205	31.41	36.55
5	169762	31.51	36.55
5	170319	31.61	36.55
5	170876	31.71	36.55
5	171433	31.81	36.55
5	171990	31.91	36.55
5	172555	32.01	36.55
5	173112	32.11	36.55
5	173669	32.21	36.55
5	174226	32.31	36.55
5	174783	32.41	36.55
5	175340	32.51	36.55
5	175897	32.61	36.55
5	176454	32.71	36.55
5	177011	32.81	36.55
5	177568	32.91	36.55
5	178133	33.01	36.55
5	178690	33.11	36.55
5	179247	33.21	36.55
5	179804	33.31	36.55
5	180361	33.41	36.55
5	180918	33.51	36.55
5	181475	33.61	36.55
5	182032	33.71	36.55
5	182589	33.81	36.55
5	183146	33.91	36.55
5	183711	34.01	36.55
5	184268	34.11	36.55
5	184825	34.21	36.55
5	185382	34.31	36.55
5	185939	34.41	36.55
5	186496	34.51	36.55
5	187053	34.61	36.55
5	187610	34.71	36.55
5	188167	34.81	36.55
5	188724	34.91	36.55
5	189289	35.01	36.55
5	189846	35.11	36.55
5	190403	35.21	36.55
5	190960	35.31	36.55
5	191517	35.41	36.55
5	192074	35.51	36.55
5	192631	35.61	36.55
5	193188	35.71	36.55
5	193745	35.81	36.55
5	194302	35.91	36.55
5	194867	36.01	36.55
5	195424	36.11	36.55
5	195981	36.21	36.55
5	196538	36.31	36.55
5	197095	36.41	36.55
5	197652	36.51	36.55
5	198209	36.61	36.55
5	198766	36.71	36.55
5	199323	36.81	36.55
5	199880	36.91	36.55
5	200445	37.01	36.55
5	201002	37.11	36.55
5	201559	37.21	36.55
5	202116	37.31	36.55
5	202673	37.41	36.55
5	203230	37.51	36.55
5	203787	37.61	36.55
5	204344	37.71	36.55
5	204901	37.81	36.55
5	205458	37.91	36.55
5	206023	38.01	36.55
5	206580	38.11	36.55
5	207137	38.21	36.55
5	207694	38.31	36.55
5	208251	38.41	36.55
5	208808	38.51	36.55
5	209365	38.61	36.55
5	209922	38.71	36.55
5	210479	38.81	36.55
5	211036	38.91	36.55
5	211601	39.01	36.55
5	212158	39.11	36.55
5	212715	39.21	36.55
5	213272	39.31	36.55
5	213829	39.41	36.55
5	214386	39.51	36.55
5	214943	39.61	36.55
5	215500	39.71	36.55
5	216057	39.81	36.55
5	216614	39.91	36.55
5	217179	40.01	36.55
5	217736	40.11	36.55
5	218293	40.21	36.55
5	218850	40.31	36.55
5	219407	40.41	36.55
5	219964	40.51	36.55
4	232	1.11	100.60653190573
4	788	1.21	104.77319869691
4	1344	1.31	108.93986548402
4	1900	1.41	113.10653226562
4	2456	1.51	117.27319904066
4	3012	1.61	121.43986580835
4	3568	1.71	125.60653256821
4	4124	1.81	129.77319931997
4	4680	1.91	133.93986606357
4	5244	2.01	138.10653279909
4	5800	2.11	142.27319952674
4	6356	2.21	146.43986624685
4	6912	2.31	150.60653295981
4	7468	2.41	154.77319966608
4	8024	2.51	158.93986636614
4	8580	2.61	163.10653306052
4	9136	2.71	167.27319974974
4	9692	2.81	171.43986643431
4	10248	2.91	175.60653311476
4	10812	3.01	179.77319979158
4	11368	3.11	183.93986646524
4	11924	3.21	188.10653313617
4	12480	3.31	192.2731998048
4	13036	3.41	196.4398664715
4	13592	3.51	200.60653313662
4	14148	3.61	204.77319980047
4	14704	3.71	208.93986646333
4	15260	3.81	213.10653312544
4	15816	3.91	217.27319978702
4	16380	4.01	221.43986644826
4	16936	4.11	225.60653310931
4	17492	4.21	229.77319977032
4	18048	4.31	233.93986643138
4	18604	4.41	238.10653309259
4	19160	4.51	242.27319975403
4	19716	4.61	246.43986641574
4	20272	4.71	250.60653307776
4	20828	4.81	254.77319974013
4	21384	4.91	258.93986640285
4	21949	5.01	263.10653306594
4	22506	5.11	267.27320109467
4	23063	5.21	271.44009562547
4	23620	5.31	275.60799024999
4	24177	5.41	279.77810959587
4	24734	5.51	283.9520036468
4	25291	5.61	288.13140726518
4	25848	5.71	292.31800593549
4	26405	5.81	296.5132016981
4	26962	5.91	300.71814484629
4	27527	6.01	304.93377902115
4	28084	6.11	309.16087833708
4	28641	6.21	313.40007783748
4	29198	6.31	317.65189847916
4	29755	6.41	321.91676762812
4	30312	6.51	326.19503584167
4	30869	6.61	330.48696086973
4	31426	6.71	334.79249627936
4	31983	6.81	339.111115554
4	32540	6.91	343.44182991733
4	33105	7.01	347.78322465654
4	33662	7.11	352.13350265714
4	34219	7.21	356.49053399316
4	34776	7.31	360.85191040527
4	35333	7.41	365.2150039565
4	35890	7.51	369.5771017196
4	36447	7.61	373.93570588821
4	37004	7.71	378.28874931701
4	37561	7.81	382.63453622687
4	38118	7.91	386.97167548825
4	38683	8.01	391.29902589039
4	39240	8.11	395.61565124301
4	39797	8.21	399.92078354397
4	40354	8.31	404.21379276405
4	40911	8.41	408.49416205984
4	41468	8.51	412.76146743972
4	42025	8.61	417.01536108289
4	42582	8.71	421.25555765516
4	43139	8.81	425.48182308309
4	43696	8.91	429.69396534496
4	44261	9.01	433.89182691604
4	44818	9.11	438.07527857122
4	45375	9.21	442.24421430089
4	45932	9.31	446.39854714024
4	46489	9.41	450.53820574785
4	47046	9.51	454.66313386169
4	47603	9.61	458.77352678216
4	48160	9.71	462.87024583056
4	48717	9.81	466.9547827693
4	49274	9.91	471.02915471144
4	49839	10.01	475.09579949646
4	50396	10.11	479.15747284121
4	50953	10.21	483.21714750495
4	51510	10.31	487.2777517016
4	52067	10.41	491.34180674029
4	52624	10.51	495.4113874469
4	53181	10.61	499.48819590129
4	53738	10.71	503.57362840178
4	54295	10.81	507.66883039934
4	54852	10.91	511.7747415627
4	55417	11.01	515.89213274753
4	55974	11.11	520.02163632394
4	56531	11.21	524.16377105572
4	57088	11.31	528.31896250981
4	57645	11.41	532.48755979936
4	58202	11.51	536.66984931874
4	58759	11.61	540.86606601109
4	59316	11.71	545.0764026116
4	59873	11.81	549.30101723027
4	60430	11.91	553.54002477296
4	60995	12.01	557.79322020989
4	61552	12.11	562.05975822511
4	62109	12.21	566.33820971726
4	62666	12.31	570.62664879572
4	63223	12.41	574.92274157175
4	63780	12.51	579.22383538175
4	64337	12.61	583.52704801752
4	64894	12.71	587.82949072992
4	65451	12.81	592.12861774453
4	66008	12.91	596.42232995659
4	66573	13.01	600.70890536908
4	67130	13.11	604.98693134468
4	67687	13.21	609.25524902875
4	68244	13.31	613.51290775687
4	68801	13.41	617.7591276531
4	69358	13.51	621.99326894754
4	69915	13.61	626.21480680602
4	70472	13.71	630.42331068175
4	71029	13.81	634.61842737637
4	71586	13.91	638.79986714425
4	72151	14.01	642.96739229301
4	72708	14.11	647.12080783214
4	73265	14.21	651.25995380149
4	73822	14.31	655.38469897803
4	74379	14.41	659.49493649422
4	74936	14.51	663.59073288792
4	75493	14.61	667.67270346515
4	76050	14.71	671.74209196052
4	76607	14.81	675.80068419139
4	77164	14.91	679.85071364195
4	77729	15.01	683.89476691429
4	78286	15.11	687.9356899268
4	78843	15.21	691.97642555322
4	79400	15.31	696.01968294678
4	79957	15.41	700.06770384323
4	80514	15.51	704.12232724667
4	81071	15.61	708.185061781
4	81628	15.71	712.25714504326
4	82185	15.81	716.3395922941
4	82742	15.91	720.43323640084
4	83307	16.01	724.5387606048
4	83864	16.11	728.6567254018
4	84421	16.21	732.78759059366
4	84978	16.31	736.93173337801
4	85535	16.41	741.08946318829
4	86092	16.51	745.2610338677
4	86649	16.61	749.44665365606
4	87206	16.71	753.64649338257
4	87763	16.81	757.86069318667
4	88320	16.91	762.08936701704
4	88885	17.01	766.33241836968
4	89442	17.11	770.58914887435
4	89999	17.21	774.85824486978
4	90556	17.31	779.13786705917
4	91113	17.41	783.42574293044
4	91670	17.51	787.71925940904
4	92227	17.61	792.01555502755
4	92784	17.71	796.31170414089
4	93341	17.81	800.6050544849
4	93898	17.91	804.89341408775
4	94463	18.01	809.17498476905
4	95020	18.11	813.44829139462
4	95577	18.21	817.71212384061
4	96134	18.31	821.96548938399
4	96691	18.41	826.20757364611
4	97248	18.51	830.43770855281
4	97805	18.61	834.65534605063
4	98362	18.71	838.8600365448
4	98919	18.81	843.05141121104
4	99476	18.91	847.22916748498
4	100041	19.01	851.39305715844
4	100598	19.11	855.54287661428
4	101155	19.21	859.67845881551
4	101712	19.31	863.79966673362
4	102269	19.41	867.90638887623
4	102826	19.51	871.99871040927
4	103383	19.61	876.07729886971
4	103940	19.71	880.14344199171
4	104497	19.81	884.19895923501
4	105054	19.91	888.24610862625
4	105619	20.01	892.28749340466
4	106176	20.11	896.3259692485
4	106733	20.21	900.36446814973
4	107290	20.31	904.4056634045
4	107847	20.41	908.45176538379
4	108404	20.51	912.50458736172
4	108961	20.61	916.56561685459
4	109518	20.71	920.63607414391
4	110075	20.81	924.71696028551
4	110632	20.91	928.80909649386
4	111197	21.01	932.91315645083
4	111754	21.11	937.02969281021
4	112311	21.21	941.15915894061
4	112868	21.31	945.30192676218
4	113425	21.41	949.45830137899
4	113982	21.51	953.62853308264
4	114539	21.61	957.81282719942
4	115096	21.71	962.01135216842
4	115653	21.81	966.22424616833
4	116210	21.91	970.45162160516
4	116775	22.01	974.69338918672
4	117332	22.11	978.94886995326
4	117889	22.21	983.21676654457
4	118446	22.31	987.49525213359
4	119003	22.41	991.78206331136
4	119560	22.51	996.07459318131
4	120117	22.61	1000.369983909
4	120674	22.71	1004.665305847
4	121231	22.81	1008.9578934903
4	121788	22.91	1013.2455432842
4	122353	23.01	1017.5264475461
4	122910	23.11	1021.7991233469
4	123467	23.21	1026.062354168
4	124024	23.31	1030.3151420407
4	124581	23.41	1034.5566682829
4	125138	23.51	1038.7862612901
4	125695	23.61	1043.0033701127
4	126252	23.71	1047.2075427804
4	126809	23.81	1051.3984085197
4	127366	23.91	1055.5756631675
4	127931	24.01	1059.739057204
4	128488	24.11	1063.8883859362
4	129045	24.21	1068.0234814443
4	129602	24.31	1072.1442059757
4	130159	24.41	1076.2504474629
4	130716	24.51	1080.3422936665
4	131273	24.61	1084.420419307
4	131830	24.71	1088.4861181725
4	132387	24.81	1092.5412143557
4	132944	24.91	1096.5879692681
4	133509	25.01	1100.6289884489
4	134066	25.11	1104.6671289323
4	134623	25.21	1108.7053212354
4	135180	25.31	1112.7462337544
4	135737	25.41	1116.7920725733
4	136294	25.51	1120.8446474495
4	136851	25.61	1124.9054430144
4	137408	25.71	1128.9756771827
4	137965	25.81	1133.0563490688
4	138522	25.91	1137.1482782944
4	139087	26.01	1141.252137235
4	139644	26.11	1145.3684774723
4	140201	26.21	1149.4977514958
4	140758	26.31	1153.6403305042
4	141315	26.41	1157.7965190099
4	141872	26.51	1161.966566819
4	142429	26.61	1166.1506788598
4	142986	26.71	1170.3490232444
4	143543	26.81	1174.5617378837
4	144100	26.91	1178.7889349708
4	144665	27.01	1183.0305261767
4	145222	27.11	1187.2858352077
4	145779	27.21	1191.5535669501
4	146336	27.31	1195.8318962964
4	146893	27.41	1200.1185610939
4	147450	27.51	1204.4109552996
4	148007	27.61	1208.7062215825
4	148564	27.71	1213.001429748
4	149121	27.81	1217.293912473
4	149678	27.91	1221.581464612
4	150243	28.01	1225.8622771777
4	150800	28.11	1230.1348661703
4	151357	28.21	1234.3980141933
4	151914	28.31	1238.6507225574
4	152471	28.41	1242.8921719895
4	153028	28.51	1247.1216904005
4	153585	28.61	1251.338726443
4	154142	28.71	1255.5428278202
4	154699	28.81	1259.7336234914
4	155256	28.91	1263.9108090736
4	155821	29.01	1268.0741348671
4	156378	29.11	1272.2233960308
4	156935	29.21	1276.358424524
4	157492	29.31	1280.4790824947
4	158049	29.41	1284.5852577962
4	158606	29.51	1288.6770385466
4	159163	29.61	1292.7551004558
4	159720	29.71	1296.8207381456
4	160277	29.81	1300.8757763469
4	160834	29.91	1304.9224769374
4	161399	30.01	1308.963445773
4	161956	30.11	1313.0015400747
4	162513	30.21	1317.0396901566
4	163070	30.31	1321.0805637401
4	163627	30.41	1325.1263663191
4	164184	30.51	1329.1789071666
4	164741	30.61	1333.2396705168
4	165298	30.71	1337.3098739585
4	165855	30.81	1341.3905163387
4	166412	30.91	1345.48241706
4	166977	31.01	1349.5862483176
4	167534	31.11	1353.7025615461
4	168091	31.21	1357.8318091135
4	168648	31.31	1361.9743621194
4	169205	31.41	1366.1305249946
4	169762	31.51	1370.3005474786
4	170319	31.61	1374.4846344445
4	170876	31.71	1378.6829539597
4	171433	31.81	1382.895643898
4	171990	31.91	1387.1228164234
4	172555	32.01	1391.3643833395
4	173112	32.11	1395.6196687195
4	173669	32.21	1399.8873777595
4	174226	32.31	1404.1656855886
4	174783	32.41	1408.452330227
4	175340	32.51	1412.7447057495
4	175897	32.61	1417.0399548941
4	176454	32.71	1421.3351473912
4	177011	32.81	1425.6276156672
4	177568	32.91	1429.9151543575
4	178133	33.01	1434.195954295
4	178690	33.11	1438.4685313327
4	179247	33.21	1442.7316679529
4	179804	33.31	1446.9843653672
4	180361	33.41	1451.2258042213
4	180918	33.51	1455.455312359
4	181475	33.61	1459.6723383785
4	182032	33.71	1463.8764299378
4	182589	33.81	1468.0672159593
4	183146	33.91	1472.24439203
4	183711	34.01	1476.4077084252
4	184268	34.11	1480.5569602836
4	184825	34.21	1484.6919795477
4	185382	34.31	1488.8126283517
4	185939	34.41	1492.9187945383
4	186496	34.51	1497.0105662746
4	187053	34.61	1501.088619407
4	187610	34.71	1505.1542486719
4	188167	34.81	1509.209278888
4	188724	34.91	1513.2559719974
4	189289	35.01	1517.2969338996
4	189846	35.11	1521.3350218412
4	190403	35.21	1525.3731661086
4	190960	35.31	1529.41403433
4	191517	35.41	1533.4598319181
4	192074	35.51	1537.5123680793
4	192631	35.61	1541.5731269929
4	193188	35.71	1545.643326203
4	193745	35.81	1549.7239645198
4	194302	35.91	1553.8158613155
4	194867	36.01	1557.9196887607
4	195424	36.11	1562.0359982695
4	195981	36.21	1566.1652421935
4	196538	36.31	1570.3077916184
4	197095	36.41	1574.4639509639
4	197652	36.51	1578.6339699601
4	198209	36.61	1582.8180534727
4	198766	36.71	1587.016369563
4	199323	36.81	1591.2290560996
4	199880	36.91	1595.4562252424
4	200445	37.01	1599.6977888133
4	201002	37.11	1603.9530709363
4	201559	37.21	1608.2207768497
4	202116	37.31	1612.4990817154
4	202673	37.41	1616.7857235776
4	203230	37.51	1621.0780965271
4	203787	37.61	1625.3733433115
4	204344	37.71	1629.6685336508
4	204901	37.81	1633.9609999369
4	205458	37.91	1638.248536775
4	206023	38.01	1642.5293349734
4	206580	38.11	1646.8019103647
4	207137	38.21	1651.0650454145
4	207694	38.31	1655.3177413209
4	208251	38.41	1659.5591787182
4	208808	38.51	1663.7886854411
4	209365	38.61	1668.0057100802
4	209922	38.71	1672.2098002874
4	210479	38.81	1676.4005849801
4	211036	38.91	1680.5777597408
4	211601	39.01	1684.7410748417
4	212158	39.11	1688.8903254186
4	212715	39.21	1693.0253434117
4	213272	39.31	1697.1459909533
4	213829	39.41	1701.2521558846
4	214386	39.51	1705.3439263796
4	214943	39.61	1709.4219783032
4	215500	39.71	1713.4876064078
4	216057	39.81	1717.5426355243
4	216614	39.91	1721.5893276034
4	217179	40.01	1725.6302885507
4	217736	40.11	1729.6683756164
4	218293	40.21	1733.706519083
4	218850	40.31	1737.747386566
4	219407	40.41	1741.7931834668
4	219964	40.51	1745.8457189825
3	232	1.11	41.666667929418
3	788	1.21	41.666667899951
3	1344	1.31	41.666667853658
3	1900	1.41	41.666667794392
3	2456	1.51	41.666667725546
3	3012	1.61	41.666667650077
3	3568	1.71	41.666667570527
3	4124	1.81	41.666667489057
3	4680	1.91	41.666667407473
3	5244	2.01	41.666667327259
3	5800	2.11	41.666667249607
3	6356	2.21	41.66666717545
3	6912	2.31	41.66666710549
3	7468	2.41	41.666667040228
3	8024	2.51	41.66666697999
3	8580	2.61	41.666666924954
3	9136	2.71	41.666666875173
3	9692	2.81	41.666666830595
3	10248	2.91	41.666666791086
3	10812	3.01	41.666666756443
3	11368	3.11	41.666666726414
3	11924	3.21	41.666666700707
3	12480	3.31	41.666666679009
3	13036	3.41	41.666666660987
3	13592	3.51	41.666666646305
3	14148	3.61	41.666666634625
3	14704	3.71	41.666666625619
3	15260	3.81	41.666666618967
3	15816	3.91	41.666666614365
3	16380	4.01	41.666666611529
3	16936	4.11	41.66666661019
3	17492	4.21	41.666666610106
3	18048	4.31	41.66666661105
3	18604	4.41	41.666666612823
3	19160	4.51	41.666666615243
3	19716	4.61	41.666666618151
3	20272	4.71	41.666666621406
3	20828	4.81	41.666666624888
3	21384	4.91	41.666666628494
3	21949	5.01	41.666666632137
3	22506	5.11	41.666734900033
3	23063	5.21	41.670948476405
3	23620	5.31	41.684664742913
3	24177	5.41	41.711945167374
3	24734	5.51	41.755610823567
3	25291	5.61	41.816952665848
3	25848	5.71	41.894216596382
3	26405	5.81	41.984547685456
3	26962	5.91	42.085598395823
3	27527	6.01	42.195442929292
3	28084	6.11	42.312501460593
3	28641	6.21	42.43547798275
3	29198	6.31	42.563309318645
3	29755	6.41	42.695123292736
3	30312	6.51	42.830202833657
3	30869	6.61	42.967277868462
3	31426	6.71	43.102240784882
3	31983	6.81	43.23027401884
3	32540	6.91	43.346870620625
3	33105	7.01	43.447913783684
3	33662	7.11	43.529744939715
3	34219	7.21	43.589220237998
3	34776	7.31	43.623755328609
3	35333	7.41	43.631381416411
3	35890	7.51	43.612092454521
3	36447	7.61	43.56932103241
3	37004	7.71	43.507285813978
3	37561	7.81	43.429447572987
3	38118	7.91	43.338645349306
3	38683	8.01	43.237208144466
3	39240	8.11	43.127046550912
3	39797	8.21	43.00972791991
3	40354	8.31	42.886538025405
3	40911	8.41	42.758531649867
3	41468	8.51	42.626574082303
3	42025	8.61	42.491375161077
3	42582	8.71	42.353517200886
3	43139	8.81	42.2134779026
3	43696	8.91	42.071649147316
3	44261	9.01	41.928352414027
3	44818	9.11	41.783851427477
3	45375	9.21	41.638362533812
3	45932	9.31	41.492063212224
3	46489	9.41	41.345099057468
3	47046	9.51	41.197687195957
3	47603	9.61	41.054345829873
3	48160	9.71	40.92197732765
3	48717	9.81	40.806518415565
3	49274	9.91	40.712854985186
3	49839	10.01	40.644830941643
3	50396	10.11	40.605270576133
3	50953	10.21	40.595961789979
3	51510	10.31	40.614765090574
3	52067	10.41	40.657138101268
3	52624	10.51	40.71884648357
3	53181	10.61	40.796416605098
3	53738	10.71	40.886998877433
3	54295	10.81	40.988255645561
3	54852	10.91	41.098269218164
3	55417	11.01	41.215466420431
3	55974	11.11	41.33855670108
3	56531	11.21	41.46648135856
3	57088	11.31	41.598371888854
3	57645	11.41	41.733515816169
3	58202	11.51	41.8713286622
3	58759	11.61	42.01133095116
3	59316	11.71	42.153129345907
3	59873	11.81	42.296401172981
3	60430	11.91	42.440475080365
3	60995	12.01	42.58031618601
3	61552	12.11	42.709536275545
3	62109	12.21	42.822598150946
3	62666	12.31	42.914842923842
3	63223	12.41	42.98250305941
3	63780	12.51	43.022702120469
3	64337	12.61	43.033484343958
3	64894	12.71	43.016216261811
3	65451	12.81	42.975102664961
3	66008	12.91	42.914427440664
3	66573	13.01	42.837704868549
3	67130	13.11	42.747817881934
3	67687	13.21	42.647131490264
3	68244	13.31	42.537585825019
3	68801	13.41	42.420772469757
3	69358	13.51	42.297997077347
3	69915	13.61	42.170330737898
3	70472	13.71	42.038652118361
3	71029	13.81	41.903682031675
3	71586	13.91	41.766011795509
3	72151	14.01	41.626126496309
3	72708	14.11	41.484424073913
3	73265	14.21	41.341230977594
3	73822	14.31	41.196815009456
3	74379	14.41	41.051434913329
3	74936	14.51	40.908219760552
3	75493	14.61	40.773448085166
3	76050	14.71	40.653147856182
3	76607	14.81	40.552410818743
3	77164	14.91	40.47538209096
3	77729	15.01	40.425263577507
3	78286	15.11	40.404308597451
3	78843	15.21	40.412557746568
3	79400	15.31	40.44627267704
3	79957	15.41	40.500878417952
3	80514	15.51	40.572621899691
3	81071	15.61	40.658424297982
3	81628	15.71	40.755759904564
3	82185	15.81	40.862556758959
3	82742	15.91	40.977115131913
3	83307	16.01	41.098040653421
3	83864	16.11	41.224189454421
3	84421	16.21	41.354623163871
3	84978	16.31	41.488571990683
3	85535	16.41	41.625404438048
3	86092	16.51	41.76460245863
3	86649	16.61	41.905741073179
3	87206	16.71	42.04847165069
3	87763	16.81	42.19250819231
3	88320	16.91	42.337565506681
3	88885	17.01	42.4798603368
3	89442	17.11	42.612895096878
3	89999	17.21	42.730819673225
3	90556	17.31	42.828699680314
3	91113	17.41	42.90252772365
3	91670	17.51	42.949221043622
3	92227	17.61	42.966635531731
3	92784	17.71	42.955239679248
3	93341	17.81	42.91894335602
3	93898	17.91	42.862219973949
3	94463	18.01	42.788739288885
3	95020	18.11	42.7015117788
3	95577	18.21	42.603007084181
3	96134	18.31	42.495251170402
3	96691	18.41	42.379906034713
3	97248	18.51	42.258335093733
3	97805	18.61	42.131656823968
3	98362	18.71	42.000788765715
3	98919	18.81	41.866483621601
3	99476	18.91	41.729358869944
3	100041	19.01	41.589921058033
3	100598	19.11	41.448585731074
3	101155	19.21	41.305693780873
3	101712	19.31	41.161524857441
3	102269	19.41	41.016354307546
3	102826	19.51	40.873722785233
3	103383	19.61	40.740048622954
3	103940	19.71	40.621247784992
3	104497	19.81	40.522312925574
3	105054	19.91	40.447302443002
3	105619	20.01	40.399343226154
3	106176	20.11	40.380619836989
3	106733	20.21	40.390852261269
3	107290	20.31	40.42619416815
3	107847	20.41	40.482134596392
3	108404	20.51	40.554972986614
3	108961	20.61	40.641673591217
3	109518	20.71	40.73974603982
3	110075	20.81	40.847147361314
3	110632	20.91	40.962201607825
3	111197	21.01	41.083533918363
3	111754	21.11	41.210016428051
3	112311	21.21	41.340723894856
3	112868	21.31	41.47489729805
3	113425	21.41	41.611913976267
3	113982	21.51	41.751263130315
3	114539	21.61	41.892525726947
3	115096	21.71	42.035358012948
3	115653	21.81	42.179477990955
3	116210	21.91	42.324606891881
3	116775	22.01	42.467114711865
3	117332	22.11	42.600552801533
3	117889	22.21	42.71902961828
3	118446	22.31	42.817574119593
3	119003	22.41	42.892146826113
3	119560	22.51	42.939637219565
3	120117	22.61	42.957875746063
3	120674	22.71	42.947212316072
3	121231	22.81	42.911516834389
3	121788	22.91	42.855286351658
3	122353	23.01	42.78221001573
3	122910	23.11	42.695314212772
3	123467	23.21	42.59708163353
3	124024	23.31	42.489548949138
3	124581	23.41	42.374386939297
3	125138	23.51	42.252966225295
3	125695	23.61	42.126411193975
3	126252	23.71	41.995644234173
3	126809	23.81	41.861422026
3	127366	23.91	41.724365310702
3	127931	24.01	41.584983312302
3	128488	24.11	41.443693771862
3	129045	24.21	41.300839382553
3	129602	24.31	41.156701272136
3	130159	24.41	41.011556940943
3	130716	24.51	40.869003238384
3	131273	24.61	40.735477564529
3	131830	24.71	40.616880524647
3	132387	24.81	40.518191181199
3	132944	24.91	40.443456034258
3	133509	25.01	40.395791677168
3	134066	25.11	40.377373233275
3	134623	25.21	40.387876729909
3	135180	25.31	40.423441010534
3	135737	25.41	40.479563862699
3	136294	25.51	40.552551904076
3	136851	25.61	40.63937527475
3	137408	25.71	40.73754843429
3	137965	25.81	40.845032373831
3	138522	25.91	40.960154395916
3	139087	26.01	41.08154230603
3	139644	26.11	41.208070426737
3	140201	26.21	41.338815310463
3	140758	26.31	41.473019408564
3	141315	26.41	41.610061267297
3	141872	26.51	41.749431078138
3	142429	26.61	41.890710620534
3	142986	26.71	42.033556807965
3	143543	26.81	42.177688189986
3	144100	26.91	42.32282679545
3	144665	27.01	42.465363471292
3	145222	27.11	42.598856642818
3	145779	27.21	42.717409067934
3	146336	27.31	42.816044660405
3	146893	27.41	42.890719525564
3	147450	27.51	42.938319324542
3	148007	27.61	42.956671000835
3	148564	27.71	42.946108152695
3	149121	27.81	42.910495183162
3	149678	27.91	42.854332389134
3	150243	28.01	42.781311581518
3	150800	28.11	42.694461331116
3	151357	28.21	42.596266120836
3	151914	28.31	42.488764092008
3	152471	28.41	42.373627230407
3	153028	28.51	42.252227146722
3	153585	28.61	42.125689039447
3	154142	28.71	41.994935963255
3	154699	28.81	41.86072514448
3	155256	28.91	41.723677772453
3	155821	29.01	41.584303438791
3	156378	29.11	41.443020186105
3	156935	29.21	41.300170954946
3	157492	29.31	41.156037076006
3	158049	29.41	41.010896345715
3	158606	29.51	40.868353351213
3	159163	29.61	40.734848117978
3	159720	29.71	40.616279136189
3	160277	29.81	40.517623596567
3	160834	29.91	40.442926360655
3	161399	30.01	40.395302603962
3	161956	30.11	40.376926150007
3	162513	30.21	40.387466972619
3	163070	30.31	40.423061873548
3	163627	30.41	40.479209845027
3	164184	30.51	40.55221849299
3	164741	30.61	40.639058768242
3	165298	30.71	40.737245795424
3	165855	30.81	40.844741111261
3	166412	30.91	40.959872465872
3	166977	31.01	41.081268031907
3	167534	31.11	41.207802433136
3	168091	31.21	41.338552469078
3	168648	31.31	41.47276079379
3	169205	31.41	41.609806119816
3	169762	31.51	41.749178775045
3	170319	31.61	41.890460650831
3	170876	31.71	42.033308752454
3	171433	31.81	42.177441704779
3	171990	31.91	42.32258164654
3	172555	32.01	42.465122296168
3	173112	32.11	42.598623053264
3	173669	32.21	42.71718589082
3	174226	32.31	42.815834027991
3	174783	32.41	42.890522962046
3	175340	32.51	42.938137827955
3	175897	32.61	42.956505086842
3	176454	32.71	42.945956090486
3	177011	32.81	42.910354484241
3	177568	32.91	42.854201012067
3	178133	33.01	42.781187851618
3	178690	33.11	42.694343874556
3	179247	33.21	42.5961538106
3	179804	33.31	42.488656003551
3	180361	33.41	42.373522605279
3	180918	33.51	42.252125362729
3	181475	33.61	42.125589586175
3	182032	33.71	41.994838421986
3	182589	33.81	41.860629171719
3	183146	33.91	41.723583086416
3	183711	34.01	41.584209808314
3	184268	34.11	41.442927421557
3	184825	34.21	41.300078900759
3	185382	34.31	41.155945604564
3	185939	34.41	41.010805370177
3	186496	34.51	40.868263850359
3	187053	34.61	40.734761432154
3	187610	34.71	40.616196314454
3	188167	34.81	40.517545430209
3	188724	34.91	40.442853415309
3	189289	35.01	40.395235250002
3	189846	35.11	40.376864578797
3	190403	35.21	40.387410541851
3	190960	35.31	40.423009659731
3	191517	35.41	40.47916109058
3	192074	35.51	40.552172576432
3	192631	35.61	40.63901517974
3	193188	35.71	40.73720411674
3	193745	35.81	40.844700999292
3	194302	35.91	40.959833639155
3	194867	36.01	41.081230259545
3	195424	36.11	41.207765525712
3	195981	36.21	41.338516271204
3	196538	36.31	41.472725177995
3	197095	36.41	41.609770981528
3	197652	36.51	41.74914402848
3	198209	36.61	41.890426225614
3	198766	36.71	42.033274590855
3	199323	36.81	42.177407759438
3	199880	36.91	42.322547885231
3	200445	37.01	42.465089082119
3	201002	37.11	42.598590883881
3	201559	37.21	42.717155155412
3	202116	37.31	42.815805020209
3	202673	37.41	42.890495891798
3	203230	37.51	42.938112832688
3	203787	37.61	42.956482237571
3	204344	37.71	42.945935148849
3	204901	37.81	42.910335107528
3	205458	37.91	42.854182919136
3	206023	38.01	42.781170811836
3	206580	38.11	42.694327698724
3	207137	38.21	42.596138343507
3	207694	38.31	42.48864111787
3	208251	38.41	42.373508196559
3	208808	38.51	42.252111345284
3	209365	38.61	42.12557588971
3	209922	38.71	41.994824988838
3	210479	38.81	41.860615954582
3	211036	38.91	41.723570046483
3	211601	39.01	41.58419691375
3	212158	39.11	41.442914646246
3	212715	39.21	41.300066223278
3	213272	39.31	41.155933007337
3	213829	39.41	41.010792841245
3	214386	39.51	40.868251524516
3	214943	39.61	40.734749493989
3	215500	39.71	40.616184908442
3	216057	39.81	40.517534665325
3	216614	39.91	40.44284336945
3	217179	40.01	40.395225974175
3	217736	40.11	40.376856099356
3	218293	40.21	40.387402770339
3	218850	40.31	40.423002468968
3	219407	40.41	40.479154376233
3	219964	40.51	40.552166252912
1	232	1.11	0
1	788	1.21	0
1	1344	1.31	0
1	1900	1.41	0
1	2456	1.51	0
1	3012	1.61	0
1	3568	1.71	0
1	4124	1.81	0
1	4680	1.91	0
1	5244	2.01	0
1	5800	2.11	0
1	6356	2.21	0
1	6912	2.31	0
1	7468	2.41	0
1	8024	2.51	0
1	8580	2.61	0
1	9136	2.71	0
1	9692	2.81	0
1	10248	2.91	0
1	10812	3.01	0
1	11368	3.11	0
1	11924	3.21	0
1	12480	3.31	0
1	13036	3.41	0
1	13592	3.51	0
1	14148	3.61	0
1	14704	3.71	0
1	15260	3.81	0
1	15816	3.91	0
1	16380	4.01	0
1	16936	4.11	0
1	17492	4.21	0
1	18048	4.31	0
1	18604	4.41	0
1	19160	4.51	0
1	19716	4.61	0
1	20272	4.71	0
1	20828	4.81	0
1	21384	4.91	0
1	21949	5.01	0
1	22506	5.11	0
1	23063	5.21	0
1	23620	5.31	0
1	24177	5.41	0
1	24734	5.51	0
1	25291	5.61	0
1	25848	5.71	0
1	26405	5.81	0
1	26962	5.91	0
1	27527	6.01	0
1	28084	6.11	0
1	28641	6.21	0
1	29198	6.31	0
1	29755	6.41	0
1	30312	6.51	0
1	30869	6.61	0
1	31426	6.71	0
1	31983	6.81	0
1	32540	6.91	0
1	33105	7.01	0
1	33662	7.11	0
1	34219	7.21	0
1	34776	7.31	0
1	35333	7.41	0
1	35890	7.51	0
1	36447	7.61	0
1	37004	7.71	0
1	37561	7.81	0
1	38118	7.91	0
1	38683	8.01	0
1	39240	8.11	0
1	39797	8.21	0
1	40354	8.31	0
1	40911	8.41	0
1	41468	8.51	0
1	42025	8.61	0
1	42582	8.71	0
1	43139	8.81	0
1	43696	8.91	0
1	44261	9.01	0
1	44818	9.11	0
1	45375	9.21	0
1	45932	9.31	0
1	46489	9.41	0
1	47046	9.51	0
1	47603	9.61	0
1	48160	9.71	0
1	48717	9.81	0
1	49274	9.91	0
1	49839	10.01	0
1	50396	10.11	0
1	50953	10.21	0
1	51510	10.31	0
1	52067	10.41	0
1	52624	10.51	0
1	53181	10.61	0
1	53738	10.71	0
1	54295	10.81	0
1	54852	10.91	0
1	55417	11.01	0
1	55974	11.11	0
1	56531	11.21	0
1	57088	11.31	0
1	57645	11.41	0
1	58202	11.51	0
1	58759	11.61	0
1	59316	11.71	0
1	59873	11.81	0
1	60430	11.91	0
1	60995	12.01	0
1	61552	12.11	0
1	62109	12.21	0
1	62666	12.31	0
1	63223	12.41	0
1	63780	12.51	0
1	64337	12.61	0
1	64894	12.71	0
1	65451	12.81	0
1	66008	12.91	0
1	66573	13.01	0
1	67130	13.11	0
1	67687	13.21	0
1	68244	13.31	0
1	68801	13.41	0
1	69358	13.51	0
1	69915	13.61	0
1	70472	13.71	0
1	71029	13.81	0
1	71586	13.91	0
1	72151	14.01	0
1	72708	14.11	0
1	73265	14.21	0
1	73822	14.31	0
1	74379	14.41	0
1	74936	14.51	0
1	75493	14.61	0
1	76050	14.71	0
1	76607	14.81	0
1	77164	14.91	0
1	77729	15.01	0
1	78286	15.11	0
1	78843	15.21	0
1	79400	15.31	0
1	79957	15.41	0
1	80514	15.51	0
1	81071	15.61	0
1	81628	15.71	0
1	82185	15.81	0
1	82742	15.91	0
1	83307	16.01	0
1	83864	16.11	0
1	84421	16.21	0
1	84978	16.31	0
1	85535	16.41	0
1	86092	16.51	0
1	86649	16.61	0
1	87206	16.71	0
1	87763	16.81	0
1	88320	16.91	0
1	88885	17.01	0
1	89442	17.11	0
1	89999	17.21	0
1	90556	17.31	0
1	91113	17.41	0
1	91670	17.51	0
1	92227	17.61	0
1	92784	17.71	0
1	93341	17.81	0
1	93898	17.91	0
1	94463	18.01	0
1	95020	18.11	0
1	95577	18.21	0
1	96134	18.31	0
1	96691	18.41	0
1	97248	18.51	0
1	97805	18.61	0
1	98362	18.71	0
1	98919	18.81	0
1	99476	18.91	0
1	100041	19.01	0
1	100598	19.11	0
1	101155	19.21	0
1	101712	19.31	0
1	102269	19.41	0
1	102826	19.51	0
1	103383	19.61	0
1	103940	19.71	0
1	104497	19.81	0
1	105054	19.91	0
1	105619	20.01	0
1	106176	20.11	0
1	106733	20.21	0
1	107290	20.31	0
1	107847	20.41	0
1	108404	20.51	0
1	108961	20.61	0
1	109518	20.71	0
1	110075	20.81	0
1	110632	20.91	0
1	111197	21.01	0
1	111754	21.11	0
1	112311	21.21	0
1	112868	21.31	0
1	113425	21.41	0
1	113982	21.51	0
1	114539	21.61	0
1	115096	21.71	0
1	115653	21.81	0
1	116210	21.91	0
1	116775	22.01	0
1	117332	22.11	0
1	117889	22.21	0
1	118446	22.31	0
1	119003	22.41	0
1	119560	22.51	0
1	120117	22.61	0
1	120674	22.71	0
1	121231	22.81	0
1	121788	22.91	0
1	122353	23.01	0
1	122910	23.11	0
1	123467	23.21	0
1	124024	23.31	0
1	124581	23.41	0
1	125138	23.51	0
1	125695	23.61	0
1	126252	23.71	0
1	126809	23.81	0
1	127366	23.91	0
1	127931	24.01	0
1	128488	24.11	0
1	129045	24.21	0
1	129602	24.31	0
1	130159	24.41	0
1	130716	24.51	0
1	131273	24.61	0
1	131830	24.71	0
1	132387	24.81	0
1	132944	24.91	0
1	133509	25.01	0
1	134066	25.11	0
1	134623	25.21	0
1	135180	25.31	0
1	135737	25.41	0
1	136294	25.51	0
1	136851	25.61	0
1	137408	25.71	0
1	137965	25.81	0
1	138522	25.91	0
1	139087	26.01	0
1	139644	26.11	0
1	140201	26.21	0
1	140758	26.31	0
1	141315	26.41	0
1	141872	26.51	0
1	142429	26.61	0
1	142986	26.71	0
1	143543	26.81	0
1	144100	26.91	0
1	144665	27.01	0
1	145222	27.11	0
1	145779	27.21	0
1	146336	27.31	0
1	146893	27.41	0
1	147450	27.51	0
1	148007	27.61	0
1	148564	27.71	0
1	149121	27.81	0
1	149678	27.91	0
1	150243	28.01	0
1	150800	28.11	0
1	151357	28.21	0
1	151914	28.31	0
1	152471	28.41	0
1	153028	28.51	0
1	153585	28.61	0
1	154142	28.71	0
1	154699	28.81	0
1	155256	28.91	0
1	155821	29.01	0
1	156378	29.11	0
1	156935	29.21	0
1	157492	29.31	0
1	158049	29.41	0
1	158606	29.51	0
1	159163	29.61	0
1	159720	29.71	0
1	160277	29.81	0
1	160834	29.91	0
1	161399	30.01	0
1	161956	30.11	0
1	162513	30.21	0
1	163070	30.31	0
1	163627	30.41	0
1	164184	30.51	0
1	164741	30.61	0
1	165298	30.71	0
1	165855	30.81	0
1	166412	30.91	0
1	166977	31.01	0
1	167534	31.11	0
1	168091	31.21	0
1	168648	31.31	0
1	169205	31.41	0
1	169762	31.51	0
1	170319	31.61	0
1	170876	31.71	0
1	171433	31.81	0
1	171990	31.91	0
1	172555	32.01	0
1	173112	32.11	0
1	173669	32.21	0
1	174226	32.31	0
1	174783	32.41	0
1	175340	32.51	0
1	175897	32.61	0
1	176454	32.71	0
1	177011	32.81	0
1	177568	32.91	0
1	178133	33.01	0
1	178690	33.11	0
1	179247	33.21	0
1	179804	33.31	0
1	180361	33.41	0
1	180918	33.51	0
1	181475	33.61	0
1	182032	33.71	0
1	182589	33.81	0
1	183146	33.91	0
1	183711	34.01	0
1	184268	34.11	0
1	184825	34.21	0
1	185382	34.31	0
1	185939	34.41	0
1	186496	34.51	0
1	187053	34.61	0
1	187610	34.71	0
1	188167	34.81	0
1	188724	34.91	0
1	189289	35.01	0
1	189846	35.11	0
1	190403	35.21	0
1	190960	35.31	0
1	191517	35.41	0
1	192074	35.51	0
1	192631	35.61	0
1	193188	35.71	0
1	193745	35.81	0
1	194302	35.91	0
1	194867	36.01	0
1	195424	36.11	0
1	195981	36.21	0
1	196538	36.31	0
1	197095	36.41	0
1	197652	36.51	0
1	198209	36.61	0
1	198766	36.71	0
1	199323	36.81	0
1	199880	36.91	0
1	200445	37.01	0
1	201002	37.11	0
1	201559	37.21	0
1	202116	37.31	0
1	202673	37.41	0
1	203230	37.51	0
1	203787	37.61	0
1	204344	37.71	0
1	204901	37.81	0
1	205458	37.91	0
1	206023	38.01	0
1	206580	38.11	0
1	207137	38.21	0
1	207694	38.31	0
1	208251	38.41	0
1	208808	38.51	0
1	209365	38.61	0
1	209922	38.71	0
1	210479	38.81	0
1	211036	38.91	0
1	211601	39.01	0
1	212158	39.11	0
1	212715	39.21	0
1	213272	39.31	0
1	213829	39.41	0
1	214386	39.51	0
1	214943	39.61	0
1	215500	39.71	0
1	216057	39.81	0
1	216614	39.91	0
1	217179	40.01	0
1	217736	40.11	0
1	218293	40.21	0
1	218850	40.31	0
1	219407	40.41	0
1	219964	40.51	0
0	232	1.11	-1
0	788	1.21	-1
0	1344	1.31	-1
0	1900	1.41	-1
0	2456	1.51	-1
0	3012	1.61	-1
0	3568	1.71	-1
0	4124	1.81	-1
0	4680	1.91	-1
0	5244	2.01	-1
0	5800	2.11	-1
0	6356	2.21	-1
0	6912	2.31	-1
0	7468	2.41	-1
0	8024	2.51	-1
0	8580	2.61	-1
0	9136	2.71	-1
0	9692	2.81	-1
0	10248	2.91	-1
0	10812	3.01	-1
0	11368	3.11	-1
0	11924	3.21	-1
0	12480	3.31	-1
0	13036	3.41	-1
0	13592	3.51	-1
0	14148	3.61	-1
0	14704	3.71	-1
0	15260	3.81	-1
0	15816	3.91	-1
0	16380	4.01	-1
0	16936	4.11	-1
0	17492	4.21	-1
0	18048	4.31	-1
0	18604	4.41	-1
0	19160	4.51	-1
0	19716	4.61	-1
0	20272	4.71	-1
0	20828	4.81	-1
0	21384	4.91	-1
0	21949	5.01	-1
0	22506	5.11	-1
0	23063	5.21	-1
0	23620	5.31	-1
0	24177	5.41	-1
0	24734	5.51	-1
0	25291	5.61	-1
0	25848	5.71	-1
0	26405	5.81	-1
0	26962	5.91	-1
0	27527	6.01	-1
0	28084	6.11	-1
0	28641	6.21	-1
0	29198	6.31	-1
0	29755	6.41	-1
0	30312	6.51	-1
0	30869	6.61	-1
0	31426	6.71	-1
0	31983	6.81	-1
0	32540	6.91	-1
0	33105	7.01	-1
0	33662	7.11	-1
0	34219	7.21	-1
0	34776	7.31	-1
0	35333	7.41	-1
0	35890	7.51	-1
0	36447	7.61	-1
0	37004	7.71	-1
0	37561	7.81	-1
0	38118	7.91	-1
0	38683	8.01	-1
0	39240	8.11	-1
0	39797	8.21	-1
0	40354	8.31	-1
0	40911	8.41	-1
0	41468	8.51	-1
0	42025	8.61	-1
0	42582	8.71	-1
0	43139	8.81	-1
0	43696	8.91	-1
0	44261	9.01	-1
0	44818	9.11	-1
0	45375	9.21	-1
0	45932	9.31	-1
0	46489	9.41	-1
0	47046	9.51	-1
0	47603	9.61	-1
0	48160	9.71	-1
0	48717	9.81	-1
0	49274	9.91	-1
0	49839	10.01	-1
0	50396	10.11	-1
0	50953	10.21	-1
0	51510	10.31	-1
0	52067	10.41	-1
0	52624	10.51	-1
0	53181	10.61	-1
0	53738	10.71	-1
0	54295	10.81	-1
0	54852	10.91	-1
0	55417	11.01	-1
0	55974	11.11	-1
0	56531	11.21	-1
0	57088	11.31	-1
0	57645	11.41	-1
0	58202	11.51	-1
0	58759	11.61	-1
0	59316	11.71	-1
0	59873	11.81	-1
0	60430	11.91	-1
0	60995	12.01	-1
0	61552	12.11	-1
0	62109	12.21	-1
0	62666	12.31	-1
0	63223	12.41	-1
0	63780	12.51	-1
0	64337	12.61	-1
0	64894	12.71	-1
0	65451	12.81	-1
0	66008	12.91	-1
0	66573	13.01	-1
0	67130	13.11	-1
0	67687	13.21	-1
0	68244	13.31	-1
0	68801	13.41	-1
0	69358	13.51	-1
0	69915	13.61	-1
0	70472	13.71	-1
0	71029	13.81	-1
0	71586	13.91	-1
0	72151	14.01	-1
0	72708	14.11	-1
0	73265	14.21	-1
0	73822	14.31	-1
0	74379	14.41	-1
0	74936	14.51	-1
0	75493	14.61	-1
0	76050	14.71	-1
0	76607	14.81	-1
0	77164	14.91	-1
0	77729	15.01	-1
0	78286	15.11	-1
0	78843	15.21	-1
0	79400	15.31	-1
0	79957	15.41	-1
0	80514	15.51	-1
0	81071	15.61	-1
0	81628	15.71	-1
0	82185	15.81	-1
0	82742	15.91	-1
0	83307	16.01	-1
0	83864	16.11	-1
0	84421	16.21	-1
0	84978	16.31	-1
0	85535	16.41	-1
0	86092	16.51	-1
0	86649	16.61	-1
0	87206	16.71	-1
0	87763	16.81	-1
0	88320	16.91	-1
0	88885	17.01	-1
0	89442	17.11	-1
0	89999	17.21	-1
0	90556	17.31	-1
0	91113	17.41	-1
0	91670	17.51	-1
0	92227	17.61	-1
0	92784	17.71	-1
0	93341	17.81	-1
0	93898	17.91	-1
0	94463	18.01	-1
0	95020	18.11	-1
0	95577	18.21	-1
0	96134	18.31	-1
0	96691	18.41	-1
0	97248	18.51	-1
0	97805	18.61	-1
0	98362	18.71	-1
0	98919	18.81	-1
0	99476	18.91	-1
0	100041	19.01	-1
0	100598	19.11	-1
0	101155	19.21	-1
0	101712	19.31	-1
0	102269	19.41	-1
0	102826	19.51	-1
0	103383	19.61	-1
0	103940	19.71	-1
0	104497	19.81	-1
0	105054	19.91	-1
0	105619	20.01	-1
0	106176	20.11	-1
0	106733	20.21	-1
0	107290	20.31	-1
0	107847	20.41	-1
0	108404	20.51	-1
0	108961	20.61	-1
0	109518	20.71	-1
0	110075	20.81	-1
0	110632	20.91	-1
0	111197	21.01	-1
0	111754	21.11	-1
0	112311	21.21	-1
0	112868	21.31	-1
0	113425	21.41	-1
0	113982	21.51	-1
0	114539	21.61	-1
0	115096	21.71	-1
0	115653	21.81	-1
0	116210	21.91	-1
0	116775	22.01	-1
0	117332	22.11	-1
0	117889	22.21	-1
0	118446	22.31	-1
0	119003	22.41	-1
0	119560	22.51	-1
0	120117	22.61	-1
0	120674	22.71	-1
0	121231	22.81	-1
0	121788	22.91	-1
0	122353	23.01	-1
0	122910	23.11	-1
0	123467	23.21	-1
0	124024	23.31	-1
0	124581	23.41	-1
0	125138	23.51	-1
0	125695	23.61	-1
0	126252	23.71	-1
0	126809	23.81	-1
0	127366	23.91	-1
0	127931	24.01	-1
0	128488	24.11	-1
0	129045	24.21	-1
0	129602	24.31	-1
0	130159	24.41	-1
0	130716	24.51	-1
0	131273	24.61	-1
0	131830	24.71	-1
0	132387	24.81	-1
0	132944	24.91	-1
0	133509	25.01	-1
0	134066	25.11	-1
0	134623	25.21	-1
0	135180	25.31	-1
0	135737	25.41	-1
0	136294	25.51	-1
0	136851	25.61	-1
0	137408	25.71	-1
0	137965	25.81	-1
0	138522	25.91	-1
0	139087	26.01	-1
0	139644	26.11	-1
0	140201	26.21	-1
0	140758	26.31	-1
0	141315	26.41	-1
0	141872	26.51	-1
0	142429	26.61	-1
0	142986	26.71	-1
0	143543	26.81	-1
0	144100	26.91	-1
0	144665	27.01	-1
0	145222	27.11	-1
0	145779	27.21	-1
0	146336	27.31	-1
0	146893	27.41	-1
0	147450	27.51	-1
0	148007	27.61	-1
0	148564	27.71	-1
0	149121	27.81	-1
0	149678	27.91	-1
0	150243	28.01	-1
0	150800	28.11	-1
0	151357	28.21	-1
0	151914	28.31	-1
0	152471	28.41	-1
0	153028	28.51	-1
0	153585	28.61	-1
0	154142	28.71	-1
0	154699	28.81	-1
0	155256	28.91	-1
0	155821	29.01	-1
0	156378	29.11	-1
0	156935	29.21	-1
0	157492	29.31	-1
0	158049	29.41	-1
0	158606	29.51	-1
0	159163	29.61	-1
0	159720	29.71	-1
0	160277	29.81	-1
0	160834	29.91	-1
0	161399	30.01	-1
0	161956	30.11	-1
0	162513	30.21	-1
0	163070	30.31	-1
0	163627	30.41	-1
0	164184	30.51	-1
0	164741	30.61	-1
0	165298	30.71	-1
0	165855	30.81	-1
0	166412	30.91	-1
0	166977	31.01	-1
0	167534	31.11	-1
0	168091	31.21	-1
0	168648	31.31	-1
0	169205	31.41	-1
0	169762	31.51	-1
0	170319	31.61	-1
0	170876	31.71	-1
0	171433	31.81	-1
0	171990	31.91	-1
0	172555	32.01	-1
0	173112	32.11	-1
0	173669	32.21	-1
0	174226	32.31	-1
0	174783	32.41	-1
0	175340	32.51	-1
0	175897	32.61	-1
0	176454	32.71	-1
0	177011	32.81	-1
0	177568	32.91	-1
0	178133	33.01	-1
0	178690	33.11	-1
0	179247	33.21	-1
0	179804	33.31	-1
0	180361	33.41	-1
0	180918	33.51	-1
0	181475	33.61	-1
0	182032	33.71	-1
0	182589	33.81	-1
0	183146	33.91	-1
0	183711	34.01	-1
0	184268	34.11	-1
0	184825	34.21	-1
0	185382	34.31	-1
0	185939	34.41	-1
0	186496	34.51	-1
0	187053	34.61	-1
0	187610	34.71	-1
0	188167	34.81	-1
0	188724	34.91	-1
0	189289	35.01	-1
0	189846	35.11	-1
0	190403	35.21	-1
0	190960	35.31	-1
0	191517	35.41	-1
0	192074	35.51	-1
0	192631	35.61	-1
0	193188	35.71	-1
0	193745	35.81	-1
0	194302	35.91	-1
0	194867	36.01	-1
0	195424	36.11	-1
0	195981	36.21	-1
0	196538	36.31	-1
0	197095	36.41	-1
0	197652	36.51	-1
0	198209	36.61	-1
0	198766	36.71	-1
0	199323	36.81	-1
0	199880	36.91	-1
0	200445	37.01	-1
0	201002	37.11	-1
0	201559	37.21	-1
0	202116	37.31	-1
0	202673	37.41	-1
0	203230	37.51	-1
0	203787	37.61	-1
0	204344	37.71	-1
0	204901	37.81	-1
0	205458	37.91	-1
0	206023	38.01	-1
0	206580	38.11	-1
0	207137	38.21	-1
0	207694	38.31	-1
0	208251	38.41	-1
0	208808	38.51	-1
0	209365	38.61	-1
0	209922	38.71	-1
0	210479	38.81	-1
0	211036	38.91	-1
0	211601	39.01	-1
0	212158	39.11	-1
0	212715	39.21	-1
0	213272	39.31	-1
0	213829	39.41	-1
0	214386	39.51	-1
0	214943	39.61	-1
0	215500	39.71	-1
0	216057	39.81	-1
0	216614	39.91	-1
0	217179	40.01	-1
0	217736	40.11	-1
0	218293	40.21	-1
0	218850	40.31	-1
0	219407	40.41	-1
0	219964	40.51	-1
2	232	1.11	0
2	788	1.21	0
2	1344	1.31	0
2	1900	1.41	0
2	2456	1.51	0
2	3012	1.61	0
2	3568	1.71	0
2	4124	1.81	0
2	4680	1.91	0
2	5244	2.01	0
2	5800	2.11	0
2	6356	2.21	0
2	6912	2.31	0
2	7468	2.41	0
2	8024	2.51	0
2	8580	2.61	0
2	9136	2.71	0
2	9692	2.81	0
2	10248	2.91	0
2	10812	3.01	0
2	11368	3.11	0
2	11924	3.21	0
2	12480	3.31	0
2	13036	3.41	0
2	13592	3.51	0
2	14148	3.61	0
2	14704	3.71	0
2	15260	3.81	0
2	15816	3.91	0
2	16380	4.01	0
2	16936	4.11	0
2	17492	4.21	0
2	18048	4.31	0
2	18604	4.41	0
2	19160	4.51	0
2	19716	4.61	0
2	20272	4.71	0
2	20828	4.81	0
2	21384	4.91	0
2	21949	5.01	0
2	22506	5.11	0
2	23063	5.21	0
2	23620	5.31	0
2	24177	5.41	0
2	24734	5.51	0
2	25291	5.61	0
2	25848	5.71	0
2	26405	5.81	0
2	26962	5.91	0
2	27527	6.01	0
2	28084	6.11	0
2	28641	6.21	0
2	29198	6.31	0
2	29755	6.41	0
2	30312	6.51	0
2	30869	6.61	0
2	31426	6.71	0
2	31983	6.81	0
2	32540	6.91	0
2	33105	7.01	0
2	33662	7.11	0
2	34219	7.21	0
2	34776	7.31	0
2	35333	7.41	0
2	35890	7.51	0
2	36447	7.61	0
2	37004	7.71	0
2	37561	7.81	0
2	38118	7.91	0
2	38683	8.01	0
2	39240	8.11	0
2	39797	8.21	0
2	40354	8.31	0
2	40911	8.41	0
2	41468	8.51	0
2	42025	8.61	0
2	42582	8.71	0
2	43139	8.81	0
2	43696	8.91	0
2	44261	9.01	0
2	44818	9.11	0
2	45375	9.21	0
2	45932	9.31	0
2	46489	9.41	0
2	47046	9.51	0
2	47603	9.61	0
2	48160	9.71	0
2	48717	9.81	0
2	49274	9.91	0
2	49839	10.01	0
2	50396	10.11	0
2	50953	10.21	0
2	51510	10.31	0
2	52067	10.41	0
2	52624	10.51	0
2	53181	10.61	0
2	53738	10.71	0
2	54295	10.81	0
2	54852	10.91	0
2	55417	11.01	0
2	55974	11.11	0
2	56531	11.21	0
2	57088	11.31	0
2	57645	11.41	0
2	58202	11.51	0
2	58759	11.61	0
2	59316	11.71	0
2	59873	11.81	0
2	60430	11.91	0
2	60995	12.01	0
2	61552	12.11	0
2	62109	12.21	0
2	62666	12.31	0
2	63223	12.41	0
2	63780	12.51	0
2	64337	12.61	0
2	64894	12.71	0
2	65451	12.81	0
2	66008	12.91	0
2	66573	13.01	0
2	67130	13.11	0
2	67687	13.21	0
2	68244	13.31	0
2	68801	13.41	0
2	69358	13.51	0
[...]
35	163314	30.354833912567	0.099998839188
35	163871	30.454910751788	0.100076839221
35	164428	30.55488359108	0.099972839292
35	164985	30.65489543048	0.1000118394
35	165542	30.754881270025	0.099985839545
35	166099	30.854841109754	0.099959839729
35	166656	30.954839949706	0.099998839952
35	167221	31.05490378992	0.100063840214
35	167778	31.154889630435	0.099985840515
35	168335	31.254836471292	0.099946840857
35	168892	31.354874312534	0.100037841242
35	169449	31.4548601542	0.099985841666
35	170006	31.554884996332	0.100024842132
35	170563	31.654883838971	0.099998842639
35	171120	31.754843682159	0.099959843188
35	171677	31.854842525938	0.099998843779
35	172234	31.954867370351	0.100024844413
35	172799	32.054879215436	0.100011845085
35	173356	32.154930061229	0.100050845793
35	173913	32.254889907752	0.099959846523
35	174470	32.354862755016	0.099972847264
35	175027	32.454913603013	0.100050847997
35	175584	32.55488645172	0.099972848707
35	176141	32.654859301096	0.099972849376
35	176698	32.754832151073	0.099972849977
35	177255	32.854870001579	0.100037850506
35	177812	32.954894852521	0.100024850942
35	178377	33.054828703796	0.099933851275
35	178934	33.154840555297	0.100011851501
35	179491	33.254865406902	0.100024851605
35	180048	33.35492925849	0.100063851588
35	180605	33.454889109934	0.099959851444
35	181162	33.5548359611	0.099946851166
35	181719	33.654860811856	0.100024850756
35	182276	33.754898662065	0.100037850209
35	182833	33.854910511591	0.100011849526
35	183390	33.954922360293	0.100011848702
35	183955	34.05492120803	0.099998847737
35	184512	34.154894054659	0.099972846629
35	185069	34.25486690004	0.099972845381
35	185626	34.35489174403	0.10002484399
35	186183	34.454877586485	0.099985842455
35	186740	34.554915427266	0.100037840781
35	187297	34.654836266239	0.099920838973
35	187854	34.75483510328	0.099998837041
35	188411	34.854846938277	0.100011834997
35	188968	34.954910771138	0.100063832861
35	189533	35.054883601788	0.09997283065
35	190090	35.154869430173	0.099985828385
35	190647	35.254829256255	0.099959826082
35	191204	35.354841080012	0.100011823757
35	191761	35.454865901443	0.100024821431
35	192318	35.554929720549	0.100063819106
35	192875	35.654837537345	0.099907816796
35	193432	35.754914351854	0.100076814509
35	193989	35.854848164106	0.099933812252
35	194546	35.954872974131	0.100024810025
35	195111	36.054832781973	0.099959807842
35	195668	36.154896587667	0.100063805694
35	196225	36.254895391263	0.099998803596
35	196782	36.354829192805	0.099933801542
35	197339	36.454879992346	0.100050799541
35	197896	36.554878789935	0.099998797589
35	198453	36.654916585626	0.100037795691
35	199010	36.754915379474	0.099998793848
35	199567	36.854875171537	0.099959792063
35	200124	36.954925961873	0.100050790336
35	200689	37.054859750535	0.099933788662
35	201246	37.154923537576	0.100063787041
35	201803	37.254870323034	0.099946785458
35	202360	37.354895106942	0.100024783908
35	202917	37.454854889311	0.099959782369
35	203474	37.554853670137	0.099998780826
35	204031	37.654865449401	0.100011779264
35	204588	37.754929227059	0.100063777658
35	205145	37.854915003054	0.099985775995
35	205702	37.95491377732	0.099998774266
35	206267	38.054886549777	0.099972772457
35	206824	38.154872320336	0.099985770559
35	207381	38.254832088906	0.09995976857
35	207938	38.354843855389	0.100011766483
35	208495	38.454842619682	0.099998764293
35	209052	38.554841381676	0.099998761994
35	209609	38.654827141266	0.09998575959
35	210166	38.754877898337	0.100050757071
35	210723	38.854837652781	0.099959754444
35	211280	38.954836404485	0.099998751704
35	211845	39.054887153334	0.100050748849
35	212402	39.154846899214	0.09995974588
35	212959	39.254910642011	0.100063742797
35	213516	39.354870381611	0.0999597396
35	214073	39.4548561179	0.099985736289
35	214630	39.554880850762	0.100024732862
35	215187	39.654853580094	0.099972729332
35	215744	39.754865305801	0.100011725707
35	216301	39.854838027802	0.099972722001
35	216858	39.954888746033	0.100050718231
35	217423	40.054887460445	0.099998714412
35	217980	40.154834171014	0.099946710569
35	218537	40.254910877734	0.10007670672
35	219094	40.354870580614	0.09995970288
35	219651	40.454921279677	0.100050699063
35	220208	40.554841974955	0.099920695278
36	1032	1.254911230853	0.100011840582
36	1588	1.354884071435	0.099972840582
36	2144	1.454869912017	0.099985840582
36	2700	1.554881752599	0.100011840582
36	3256	1.654867593181	0.099985840582
36	3812	1.754853433763	0.099985840582
36	4368	1.854917274345	0.100063840582
36	4924	1.954890114927	0.099972840582
36	5488	2.054927955509	0.100037840582
36	6044	2.154835796091	0.099907840582
36	6600	2.254899636673	0.100063840582
36	7156	2.354924477255	0.100024840582
36	7712	2.454858317837	0.099933840582
36	8268	2.554831158419	0.099972840582
36	8824	2.654894999001	0.100063840582
36	9380	2.754880839583	0.099985840582
36	9936	2.854918680165	0.100037840582
36	10492	2.954865520747	0.099946840582
36	11056	3.054864361329	0.099998840582
36	11612	3.154902201911	0.100037840582
36	12168	3.254862042493	0.099959840582
36	12724	3.354860883075	0.099998840582
36	13280	3.454924723657	0.100063840582
36	13836	3.554871564239	0.099946840582
36	14392	3.654844404821	0.099972840582
36	14948	3.754830245403	0.099985840582
36	15504	3.854829085985	0.099998840582
36	16060	3.954879926567	0.100050840582
36	16624	4.054852767149	0.099972840582
36	17180	4.154864607731	0.100011840582
36	17736	4.254928448313	0.100063840582
36	18292	4.354914288895	0.099985840582
36	18848	4.454848129477	0.099933840582
36	19404	4.554885970059	0.100037840582
36	19960	4.654858810641	0.099972840582
36	20516	4.754883651223	0.100024840582
36	21072	4.854921491805	0.100037840582
36	21628	4.954842332387	0.099920840582
36	22193	5.054828172969	0.099985840582
36	22750	5.154892013551	0.100063840582
36	23307	5.254877854136	0.099985840585
36	23864	5.354863694731	0.099985840595
36	24421	5.454888535344	0.100024840613
36	24978	5.554900375991	0.100011840647
36	25535	5.654860216689	0.099959840698
36	26092	5.754872057454	0.100011840765
36	26649	5.854870898303	0.099998840849
36	27206	5.954843739252	0.099972840949
36	27771	6.054842580312	0.09999884106
36	28328	6.154893421493	0.100050841181
36	28885	6.254918262806	0.100024841313
36	29442	6.354878104258	0.099959841452
36	29999	6.454837945856	0.099959841598
36	30556	6.554914787608	0.100076841752
36	31113	6.654913629518	0.09999884191
36	31670	6.754847471588	0.09993384207
36	32227	6.85489831382	0.100050842232
36	32784	6.954884156206	0.099985842386
36	33349	7.05484399874	0.099959842534
36	33906	7.154894841406	0.100050842666
36	34463	7.254893684185	0.099998842779
36	35020	7.354853527058	0.099959842873
36	35577	7.454891370001	0.100037842943
36	36134	7.554929212989	0.100037842988
36	36691	7.654902055998	0.099972843009
36	37248	7.754900899003	0.099998843005
36	37805	7.854925741988	0.100024842985
36	38362	7.954872584934	0.099946842946
36	38927	8.054832427826	0.099959842892
36	39484	8.154857270655	0.100024842829
36	40041	8.254856113409	0.099998842754
36	40598	8.35486795608	0.100011842671
36	41155	8.454879798659	0.100011842579
36	41712	8.554904641139	0.10002484248
36	42269	8.654838483512	0.099933842373
36	42826	8.754863325771	0.100024842259
36	43383	8.854836167912	0.099972842141
36	43940	8.954900009929	0.100063842017
36	44505	9.054924851817	0.100024841888
36	45062	9.154910693571	0.099985841754
36	45619	9.254831535184	0.099920841613
36	46176	9.354830376653	0.099998841469
36	46733	9.454855217972	0.100024841319
36	47290	9.554880059137	0.100024841165
36	47847	9.654839900147	0.09995984101
36	48404	9.754877741003	0.100037840856
36	48961	9.854850581714	0.099972840711
36	49518	9.954875422295	0.100024840581
36	50083	10.054926262764	0.100050840469
36	50640	10.154834103144	0.09990784038
36	51197	10.254923943463	0.100089840319
36	51754	10.354883783746	0.099959840283
36	52311	10.454856624019	0.099972840273
36	52868	10.554907464304	0.100050840285
36	53425	10.654867304617	0.099959840313
36	53982	10.754918144979	0.100050840362
36	54539	10.854916985402	0.099998840423
36	55096	10.954837825896	0.099920840494
36	55661	11.054875666473	0.100037840577
36	56218	11.154848507138	0.099972840665
36	56775	11.254860347901	0.100011840763
36	57332	11.35487218877	0.100011840869
36	57889	11.454858029752	0.099985840982
36	58446	11.554830870849	0.099972841097
36	59003	11.654920712069	0.10008984122
36	59560	11.754919553418	0.099998841349
36	60117	11.854918394899	0.099998841481
36	60674	11.954852236516	0.099933841617
36	61239	12.054838078273	0.099985841757
36	61796	12.154927920166	0.100089841893
36	62353	12.254848762186	0.09992084202
36	62910	12.354860604321	0.100011842135
36	63467	12.454872446551	0.10001184223
36	64024	12.554871288855	0.099998842304
36	64581	12.654870131207	0.099998842352
36	65138	12.75482997358	0.099959842373
36	65695	12.854828815946	0.099998842366
36	66252	12.954853658287	0.100024842341
36	66817	13.054904500582	0.100050842295
36	67374	13.154838342815	0.099933842233
36	67931	13.254850184972	0.100011842157
36	68488	13.354836027044	0.099985842072
36	69045	13.454834869018	0.099998841974
36	69602	13.554898710886	0.100063841868
36	70159	13.65488455264	0.099985841754
36	70716	13.754844394274	0.099959841634
36	71273	13.854908235779	0.100063841505
36	71830	13.954855077153	0.099946841374
36	72395	14.054879918387	0.100024841234
36	72952	14.154839759479	0.099959841092
36	73509	14.254903600422	0.100063840943
36	74066	14.35492844121	0.100024840788
36	74623	14.454875281841	0.099946840631
36	75180	14.554926122311	0.10005084047
36	75737	14.654924962622	0.099998840311
36	76294	14.754845802781	0.099920840159
36	76851	14.854896642799	0.100050840018
36	77408	14.95483048269	0.099933839891
36	77973	15.054842322481	0.100011839791
36	78530	15.154867162195	0.100024839714
36	79087	15.254853001858	0.099985839663
36	79644	15.354864841498	0.10001183964
36	80201	15.454850681138	0.09998583964
36	80758	15.554927520796	0.100076839658
36	81315	15.654835360493	0.099907839697
36	81872	15.75486020024	0.100024839747
36	82429	15.854898040052	0.100037839812
36	82986	15.954857879939	0.099959839887
36	83551	16.054882719911	0.100024839972
36	84108	16.154868559975	0.099985840064
36	84665	16.25491940014	0.100050840165
36	85222	16.35487924041	0.09995984027
36	85779	16.454930080795	0.100050840385
36	86336	16.554902921298	0.099972840503
36	86893	16.654927761925	0.100024840627
36	87450	16.754913602681	0.099985840756
36	88007	16.854860443573	0.099946840892
36	88564	16.954898284603	0.10003784103
36	89129	17.054845125776	0.099946841173
36	89686	17.154895967089	0.100050841313
36	90243	17.254868808535	0.099972841446
36	90800	17.3548806501	0.100011841565
36	91357	17.454905491772	0.100024841672
36	91914	17.554852333525	0.099946841753
36	92471	17.654877175332	0.100024841807
36	93028	17.754863017169	0.099985841837
36	93585	17.854900859011	0.100037841842
36	94142	17.954834700835	0.099933841824
36	94707	18.054833542622	0.099998841787
36	95264	18.154884384353	0.100050841731
36	95821	18.254844226015	0.099959841662
36	96378	18.354921067596	0.100076841581
36	96935	18.454893909087	0.099972841491
36	97492	18.554853750477	0.09995984139
36	98049	18.654865591758	0.100011841281
36	98606	18.754851432925	0.099985841167
36	99163	18.854915273969	0.100063841044
36	99720	18.954849114886	0.099933840917
36	100285	19.054899955669	0.100050840783
36	100842	19.154846796315	0.099946840646
36	101399	19.254845636815	0.0999988405
36	101956	19.35483147717	0.099985840355
36	102513	19.454869317368	0.100037840198
36	103070	19.554829157412	0.099959840044
36	103627	19.654892997302	0.10006383989
36	104184	19.754852837045	0.099959839743
36	104741	19.854877676655	0.10002483961
36	105298	19.954915516148	0.100037839493
36	105863	20.054862355548	0.0999468394
36	106420	20.154887194876	0.100024839328
36	106977	20.254860034162	0.099972839286
36	107534	20.354832873433	0.099972839271
36	108091	20.454870712709	0.100037839276
36	108648	20.554843552012	0.099972839303
36	109205	20.654881391359	0.100037839347
36	109762	20.754828230763	0.099946839404
36	110319	20.854866070237	0.100037839474
36	110876	20.954864909793	0.099998839556
36	111441	21.054863749439	0.099998839646
36	111998	21.154901589183	0.100037839744
36	112555	21.254874429033	0.09997283985
36	113112	21.354860268995	0.099985839962
36	113669	21.454846109075	0.09998584008
36	114226	21.554883949281	0.100037840206
36	114783	21.654908789616	0.100024840335
36	115340	21.754881630086	0.09997284047
36	115897	21.854841470696	0.09995984061
36	116454	21.954853311452	0.100011840756
36	117019	22.054891152354	0.100037840902
36	117576	22.154837993402	0.099946841048
36	118133	22.254862834587	0.100024841185
36	118690	22.354861675899	0.099998841312
36	119247	22.45484751732	0.099985841421
36	119804	22.55484635883	0.09999884151
36	120361	22.654923200402	0.100076841572
36	120918	22.75484404201	0.099920841608
36	121475	22.854855883626	0.100011841616
36	122032	22.954880725232	0.100024841606
36	122597	23.054918566804	0.100037841572
36	123154	23.154891408327	0.099972841523
36	123711	23.254903249783	0.100011841456
36	124268	23.354837091165	0.099933841382
36	124825	23.45487493246	0.100037841295
36	125382	23.554886773661	0.100011841201
36	125939	23.654846614757	0.099959841096
36	126496	23.754884455743	0.100037840986
36	127053	23.854844296612	0.099959840869
36	127610	23.954856137356	0.100011840744
36	128175	24.054841977974	0.099985840618
36	128732	24.154918818455	0.100076840481
36	129289	24.254839658798	0.099920840343
36	129846	24.354851498998	0.1000118402
36	130403	24.454837339048	0.09998584005
36	130960	24.554836178947	0.099998839899
36	131517	24.654861018696	0.100024839749
36	132074	24.754924858306	0.10006383961
36	132631	24.854897697783	0.099972839477
36	133188	24.954844537148	0.099946839365
36	133753	25.054843376422	0.099998839274
36	134310	25.15489421563	0.100050839208
36	134867	25.254880054799	0.099985839169
36	135424	25.354878893955	0.099998839156
36	135981	25.454916733123	0.100037839168
36	136538	25.554876572322	0.099959839199
36	137095	25.654888411569	0.100011839247
36	137652	25.754861250876	0.099972839307
36	138209	25.854925090257	0.100063839381
36	138766	25.954871929723	0.099946839466
36	139331	26.054922769282	0.100050839559
36	139888	26.154895608942	0.09997283966
36	140445	26.25492044871	0.100024839768
36	141002	26.354854288594	0.099933839884
36	141559	26.454840128598	0.099985840004
36	142116	26.554838968732	0.099998840134
36	142673	26.654850808998	0.100011840266
36	143230	26.754901649403	0.100050840405
36	143787	26.854874489951	0.099972840548
36	144344	26.954886330646	0.100011840695
36	144909	27.05484617149	0.099959840844
36	145466	27.154871012483	0.100024840993
36	146023	27.254882853619	0.100011841136
36	146580	27.354868694885	0.099985841266
36	147137	27.45482853626	0.099959841375
36	147694	27.554918377727	0.100089841467
36	148251	27.65485221926	0.099933841533
36	148808	27.75491606083	0.10006384157
36	149365	27.854914902412	0.099998841582
36	149922	27.954926743984	0.100011841572
36	150487	28.054860585526	0.099933841542
36	151044	28.154846427019	0.099985841493
36	151601	28.254923268451	0.100076841432
36	152158	28.354883109809	0.099959841358
36	152715	28.454868951082	0.099985841273
36	153272	28.554841792263	0.099972841181
36	153829	28.654905633342	0.100063841079
36	154386	28.754904474313	0.099998840971
36	154943	28.85491631517	0.100011840857
36	155500	28.954915155905	0.099998840735
36	156065	29.054900996513	0.099985840608
36	156622	29.154834836989	0.099933840476
36	157179	29.254924677327	0.100089840338
36	157736	29.354871517524	0.099946840197
36	158293	29.454896357573	0.100024840049
36	158850	29.554882197472	0.099985839899
36	159407	29.654881037223	0.099998839751
36	159964	29.754892876835	0.100011839612
36	160521	29.854878716318	0.099985839483
36	161078	29.95485155569	0.099972839372
36	161643	30.054889394973	0.100037839283
36	162200	30.154914234192	0.100024839219
36	162757	30.254835073379	0.099920839187
36	163314	30.354833912567	0.099998839188
36	163871	30.454910751788	0.100076839221
36	164428	30.55488359108	0.099972839292
36	164985	30.65489543048	0.1000118394
36	165542	30.754881270025	0.099985839545
36	166099	30.854841109754	0.099959839729
36	166656	30.954839949706	0.099998839952
36	167221	31.05490378992	0.100063840214
36	167778	31.154889630435	0.099985840515
36	168335	31.254836471292	0.099946840857
36	168892	31.354874312534	0.100037841242
36	169449	31.4548601542	0.099985841666
36	170006	31.554884996332	0.100024842132
36	170563	31.654883838971	0.099998842639
36	171120	31.754843682159	0.099959843188
36	171677	31.854842525938	0.099998843779
36	172234	31.954867370351	0.100024844413
36	172799	32.054879215436	0.100011845085
36	173356	32.154930061229	0.100050845793
36	173913	32.254889907752	0.099959846523
36	174470	32.354862755016	0.099972847264
36	175027	32.454913603013	0.100050847997
36	175584	32.55488645172	0.099972848707
36	176141	32.654859301096	0.099972849376
36	176698	32.754832151073	0.099972849977
36	177255	32.854870001579	0.100037850506
36	177812	32.954894852521	0.100024850942
36	178377	33.054828703796	0.099933851275
36	178934	33.154840555297	0.100011851501
36	179491	33.254865406902	0.100024851605
36	180048	33.35492925849	0.100063851588
36	180605	33.454889109934	0.099959851444
36	181162	33.5548359611	0.099946851166
36	181719	33.654860811856	0.100024850756
36	182276	33.754898662065	0.100037850209
36	182833	33.854910511591	0.100011849526
36	183390	33.954922360293	0.100011848702
36	183955	34.05492120803	0.099998847737
36	184512	34.154894054659	0.099972846629
36	185069	34.25486690004	0.099972845381
36	185626	34.35489174403	0.10002484399
36	186183	34.454877586485	0.099985842455
36	186740	34.554915427266	0.100037840781
36	187297	34.654836266239	0.099920838973
36	187854	34.75483510328	0.099998837041
36	188411	34.854846938277	0.100011834997
36	188968	34.954910771138	0.100063832861
36	189533	35.054883601788	0.09997283065
36	190090	35.154869430173	0.099985828385
36	190647	35.254829256255	0.099959826082
36	191204	35.354841080012	0.100011823757
36	191761	35.454865901443	0.100024821431
36	192318	35.554929720549	0.100063819106
36	192875	35.654837537345	0.099907816796
36	193432	35.754914351854	0.100076814509
36	193989	35.854848164106	0.099933812252
36	194546	35.954872974131	0.100024810025
36	195111	36.054832781973	0.099959807842
36	195668	36.154896587667	0.100063805694
36	196225	36.254895391263	0.099998803596
36	196782	36.354829192805	0.099933801542
36	197339	36.454879992346	0.100050799541
36	197896	36.554878789935	0.099998797589
36	198453	36.654916585626	0.100037795691
36	199010	36.754915379474	0.099998793848
36	199567	36.854875171537	0.099959792063
36	200124	36.954925961873	0.100050790336
36	200689	37.054859750535	0.099933788662
36	201246	37.154923537576	0.100063787041
36	201803	37.254870323034	0.099946785458
36	202360	37.354895106942	0.100024783908
36	202917	37.454854889311	0.099959782369
36	203474	37.554853670137	0.099998780826
36	204031	37.654865449401	0.100011779264
36	204588	37.754929227059	0.100063777658
36	205145	37.854915003054	0.099985775995
36	205702	37.95491377732	0.099998774266
36	206267	38.054886549777	0.099972772457
36	206824	38.154872320336	0.099985770559
36	207381	38.254832088906	0.09995976857
36	207938	38.354843855389	0.100011766483
36	208495	38.454842619682	0.099998764293
36	209052	38.554841381676	0.099998761994
36	209609	38.654827141266	0.09998575959
36	210166	38.754877898337	0.100050757071
36	210723	38.854837652781	0.099959754444
36	211280	38.954836404485	0.099998751704
36	211845	39.054887153334	0.100050748849
36	212402	39.154846899214	0.09995974588
36	212959	39.254910642011	0.100063742797
36	213516	39.354870381611	0.0999597396
36	214073	39.4548561179	0.099985736289
36	214630	39.554880850762	0.100024732862
36	215187	39.654853580094	0.099972729332
36	215744	39.754865305801	0.100011725707
36	216301	39.854838027802	0.099972722001
36	216858	39.954888746033	0.100050718231
36	217423	40.054887460445	0.099998714412
36	217980	40.154834171014	0.099946710569
36	218537	40.254910877734	0.10007670672
36	219094	40.354870580614	0.09995970288
36	219651	40.454921279677	0.100050699063
36	220208	40.554841974955	0.099920695278
