file 1698047 1501510304                                         
version 2
run SinusoidalJammingAttack-98-20170731-16:11:12-108854
attr CACCSpacing 5
attr attackAcc -30
attr attackPos 7
attr attackSpeed 150
attr attackStart 30
attr attacker 1
attr beaconInterval 0.1
attr configname SinusoidalJammingAttack
attr controller 3
attr datetime 20170731-16:11:12
attr experiment SinusoidalJammingAttack
attr fakeAcc "(1 == 4)"
attr fakePos "(1 == 2)"
attr fakeSpeed "(1 == 3)"
attr inifile omnetpp_98.ini
attr iterationvars "$leaderSpeed=120, $controller=3, $CACCSpacing=5, $sController=\"CONSENSUS\", $attacker=1, $attackStart=30, $attackSpeed=150, $attackPos=7, $attackAcc=-30, $0=15, $1=0.8, $nCars=8, $platoonSize=8, $nLanes=1, $beaconInterval=0.1, $priority=2, $packetSize=200, $ploegH=0.5, $leaderHeadway=1.2, $fakeSpeed=(1 == 3), $fakeAcc=(1 == 4), $fakePos=(1 == 2)"
attr iterationvarsf leaderSpeed=120,controller=3,CACCSpacing=5,sController=CONSENSUS,attacker=1,attackStart=30,attackSpeed=150,attackPos=7,attackAcc=-30,15,0.8,nCars=8,platoonSize=8,nLanes=1,beaconInterval=0.1,priority=2,packetSize=200,ploegH=0.5,leaderHeadway=1.2,fakeSpeed=(1_==_3),fakeAcc=(1_==_4),fakePos=(1_==_2)-
attr leaderHeadway 1.2
attr leaderSpeed 120
attr measurement "$leaderSpeed=120, $controller=3, $CACCSpacing=5, $sController=\"CONSENSUS\", $attacker=1, $attackStart=30, $attackSpeed=150, $attackPos=7, $attackAcc=-30, $0=15, $1=0.8, $nCars=8, $platoonSize=8, $nLanes=1, $beaconInterval=0.1, $priority=2, $packetSize=200, $ploegH=0.5, $leaderHeadway=1.2, $fakeSpeed=(1 == 3), $fakeAcc=(1 == 4), $fakePos=(1 == 2)"
attr nCars 8
attr nLanes 1
attr network scenario
attr packetSize 200
attr platoonSize 8
attr ploegH 0.5
attr priority 2
attr processid 108854
attr repetition 3
attr replication #3
attr resultdir results
attr runnumber 98
attr sController "\"CONSENSUS\""
attr seedset 3
param **.coreDebug false
param **.debug false
param **.headway 0.1s
param **.numberOfCars 8
param **.numberOfCarsPerPlatoon 8
param **.numberOfLanes 1
param **.numericController 3
param **.traffic.nCars 8
param **.traffic.nLanes 1
param **.traffic.platoonInsertDistance 15m
param **.traffic.platoonInsertHeadway 0.8s
param **.traffic.platoonInsertSpeed 120kmph
param **.traffic.platoonInsertTime "1 s"
param **.traffic.platoonLeaderHeadway 1.2s
param **.traffic.platoonSize 8
param **.traffic.platooningVType "\"vtypeauto\""
param **.traffic_type "\"PlatoonsTrafficManager\""
param *.**.nic.mac1609_4.bitrate 6Mbps
param *.**.nic.mac1609_4.txPower 100mW
param *.**.nic.mac1609_4.useServiceChannel false
param *.**.nic.phy80211p.analogueModels "xmldoc(\"config.xml\")"
param *.**.nic.phy80211p.decider "xmldoc(\"config.xml\")"
param *.**.nic.phy80211p.maxTXPower 100mW
param *.**.nic.phy80211p.sensitivity -94dBm
param *.**.nic.phy80211p.thermalNoise -95dBm
param *.**.nic.phy80211p.usePropagationDelay true
param *.**.nic.phy80211p.useThermalNoise true
param *.annotations.draw false
param *.connectionManager.alpha 2.0
param *.connectionManager.carrierFrequency "5.890e9 Hz"
param *.connectionManager.pMax 100mW
param *.connectionManager.sat -94dBm
param *.connectionManager.sendDirect true
param *.manager.autoShutdown true
param *.manager.commandLine "\"sumo --remote-port $port --seed $seed --configuration-file $configFile\""
param *.manager.configFile "\"./sumocfg/freeway.sumo.cfg\""
param *.manager.host "\"localhost\""
param *.manager.margin 25
param *.manager.moduleDisplayString "\"\""
param *.manager.moduleName "\"node\""
param *.manager.moduleType "\"Car\""
param *.manager.updateInterval 0.01s
param *.node[*].appl.attackStart 30s
param *.node[*].appl.attackerType 1
param *.node[*].appl.simulationDuration "60 s"
param *.node[*].appl_type "\"SimplePlatooningApp\""
param *.node[*].helper.nCars 8
param *.node[*].helper.nLanes 1
param *.node[*].helper.platoonSize 8
param *.node[*].helper_type "\"PositionHelper\""
param *.node[*].mobility.x 0
param *.node[*].mobility.y 0
param *.node[*].mobility.z 1.895
param *.node[*].prot.attackStart 30s
param *.node[*].prot.attackerType 1
param *.node[*].prot.attackingNode 3
param *.node[*].prot.beaconingInterval 0.1s
param *.node[*].prot.fakeAcc "(1 == 4)"
param *.node[*].prot.fakePos "(1 == 2)"
param *.node[*].prot.fakeSpeed "(1 == 3)"
param *.node[*].prot.maliciousAcc "-30 mpss"
param *.node[*].prot.maliciousSpeed 150kmph
param *.node[*].prot.packetSize 200
param *.node[*].prot.priority 2
param *.node[*].prot.shiftX "7 m"
param *.node[*].prot.useControllerAcceleration true
param *.node[*].protocol_type "\"SimplePlatooningBeaconing\""
param *.node[*].scenario.accHeadway 0.1s
param *.node[*].scenario.caccC1 0.5
param *.node[*].scenario.caccOmegaN "0.2 Hz"
param *.node[*].scenario.caccSpacing 5m
param *.node[*].scenario.caccXi 1
param *.node[*].scenario.controller "\"CONSENSUS\""
param *.node[*].scenario.engineTau "0.5 s"
param *.node[*].scenario.leaderHeadway 1.2s
param *.node[*].scenario.leaderOscillationFrequency "0.2 Hz"
param *.node[*].scenario.leaderSpeed 120kmph
param *.node[*].scenario.oscillationAmplitude "10 kmph"
param *.node[*].scenario.ploegH 0.5s
param *.node[*].scenario.ploegKd 0.7
param *.node[*].scenario.ploegKp 0.2
param *.node[*].scenario.startOscillating "5 s"
param *.node[*].scenario.useRealisticEngine false
param *.node[*].scenario_type "\"SinusoidalScenario\""
param *.node[*].unicast.packetLossRate 0
param *.obstacles.debug false
param *.playgroundSizeX 65000m
param *.playgroundSizeY 25000m
param *.playgroundSizeZ 50m
param *.world.use2D false
param *.world.useTorus false

vector 0  scenario.node[0].appl  distance  ETV
vector 1  scenario.node[0].appl  relativeSpeed  ETV
vector 2  scenario.node[0].appl  nodeId  ETV
vector 6  scenario.node[0].appl  acceleration  ETV
vector 7  scenario.node[0].appl  controllerAcceleration  ETV
vector 3  scenario.node[0].appl  speed  ETV
vector 4  scenario.node[0].appl  posx  ETV
vector 5  scenario.node[0].appl  posy  ETV
vector 22  scenario.node[1].appl  distance  ETV
vector 23  scenario.node[1].appl  relativeSpeed  ETV
vector 24  scenario.node[1].appl  nodeId  ETV
vector 28  scenario.node[1].appl  acceleration  ETV
vector 29  scenario.node[1].appl  controllerAcceleration  ETV
vector 25  scenario.node[1].appl  speed  ETV
vector 26  scenario.node[1].appl  posx  ETV
vector 27  scenario.node[1].appl  posy  ETV
vector 44  scenario.node[2].appl  distance  ETV
vector 45  scenario.node[2].appl  relativeSpeed  ETV
vector 46  scenario.node[2].appl  nodeId  ETV
vector 50  scenario.node[2].appl  acceleration  ETV
vector 51  scenario.node[2].appl  controllerAcceleration  ETV
vector 47  scenario.node[2].appl  speed  ETV
vector 48  scenario.node[2].appl  posx  ETV
vector 49  scenario.node[2].appl  posy  ETV
vector 66  scenario.node[3].appl  distance  ETV
vector 67  scenario.node[3].appl  relativeSpeed  ETV
vector 68  scenario.node[3].appl  nodeId  ETV
vector 72  scenario.node[3].appl  acceleration  ETV
vector 73  scenario.node[3].appl  controllerAcceleration  ETV
vector 69  scenario.node[3].appl  speed  ETV
vector 70  scenario.node[3].appl  posx  ETV
vector 71  scenario.node[3].appl  posy  ETV
vector 88  scenario.node[4].appl  distance  ETV
vector 89  scenario.node[4].appl  relativeSpeed  ETV
vector 90  scenario.node[4].appl  nodeId  ETV
vector 94  scenario.node[4].appl  acceleration  ETV
vector 95  scenario.node[4].appl  controllerAcceleration  ETV
vector 91  scenario.node[4].appl  speed  ETV
vector 92  scenario.node[4].appl  posx  ETV
vector 93  scenario.node[4].appl  posy  ETV
vector 110  scenario.node[5].appl  distance  ETV
vector 111  scenario.node[5].appl  relativeSpeed  ETV
vector 112  scenario.node[5].appl  nodeId  ETV
vector 116  scenario.node[5].appl  acceleration  ETV
vector 117  scenario.node[5].appl  controllerAcceleration  ETV
vector 113  scenario.node[5].appl  speed  ETV
vector 114  scenario.node[5].appl  posx  ETV
vector 115  scenario.node[5].appl  posy  ETV
vector 132  scenario.node[6].appl  distance  ETV
vector 133  scenario.node[6].appl  relativeSpeed  ETV
vector 134  scenario.node[6].appl  nodeId  ETV
vector 138  scenario.node[6].appl  acceleration  ETV
vector 139  scenario.node[6].appl  controllerAcceleration  ETV
vector 135  scenario.node[6].appl  speed  ETV
vector 136  scenario.node[6].appl  posx  ETV
vector 137  scenario.node[6].appl  posy  ETV
vector 154  scenario.node[7].appl  distance  ETV
vector 155  scenario.node[7].appl  relativeSpeed  ETV
vector 156  scenario.node[7].appl  nodeId  ETV
vector 160  scenario.node[7].appl  acceleration  ETV
vector 161  scenario.node[7].appl  controllerAcceleration  ETV
vector 157  scenario.node[7].appl  speed  ETV
vector 158  scenario.node[7].appl  posx  ETV
vector 159  scenario.node[7].appl  posy  ETV
vector 35  scenario.node[1].prot  leaderDelay  ETV
vector 33  scenario.node[1].prot  leaderDelayId  ETV
vector 36  scenario.node[1].prot  frontDelay  ETV
vector 34  scenario.node[1].prot  frontDelayId  ETV
vector 57  scenario.node[2].prot  leaderDelay  ETV
vector 55  scenario.node[2].prot  leaderDelayId  ETV
vector 79  scenario.node[3].prot  leaderDelay  ETV
vector 77  scenario.node[3].prot  leaderDelayId  ETV
vector 101  scenario.node[4].prot  leaderDelay  ETV
vector 99  scenario.node[4].prot  leaderDelayId  ETV
vector 123  scenario.node[5].prot  leaderDelay  ETV
vector 121  scenario.node[5].prot  leaderDelayId  ETV
vector 145  scenario.node[6].prot  leaderDelay  ETV
vector 143  scenario.node[6].prot  leaderDelayId  ETV
vector 167  scenario.node[7].prot  leaderDelay  ETV
vector 165  scenario.node[7].prot  leaderDelayId  ETV
vector 168  scenario.node[7].prot  frontDelay  ETV
vector 166  scenario.node[7].prot  frontDelayId  ETV
vector 58  scenario.node[2].prot  frontDelay  ETV
vector 56  scenario.node[2].prot  frontDelayId  ETV
vector 124  scenario.node[5].prot  frontDelay  ETV
vector 122  scenario.node[5].prot  frontDelayId  ETV
vector 80  scenario.node[3].prot  frontDelay  ETV
vector 78  scenario.node[3].prot  frontDelayId  ETV
vector 146  scenario.node[6].prot  frontDelay  ETV
vector 144  scenario.node[6].prot  frontDelayId  ETV
vector 102  scenario.node[4].prot  frontDelay  ETV
vector 100  scenario.node[4].prot  frontDelayId  ETV
vector 8  scenario.node[0].prot  nodeId  ETV
vector 9  scenario.node[0].prot  busyTime  ETV
vector 10  scenario.node[0].prot  collisions  ETV
vector 30  scenario.node[1].prot  nodeId  ETV
vector 31  scenario.node[1].prot  busyTime  ETV
vector 32  scenario.node[1].prot  collisions  ETV
vector 52  scenario.node[2].prot  nodeId  ETV
vector 53  scenario.node[2].prot  busyTime  ETV
vector 54  scenario.node[2].prot  collisions  ETV
vector 74  scenario.node[3].prot  nodeId  ETV
vector 75  scenario.node[3].prot  busyTime  ETV
vector 76  scenario.node[3].prot  collisions  ETV
vector 96  scenario.node[4].prot  nodeId  ETV
vector 97  scenario.node[4].prot  busyTime  ETV
vector 98  scenario.node[4].prot  collisions  ETV
vector 118  scenario.node[5].prot  nodeId  ETV
vector 119  scenario.node[5].prot  busyTime  ETV
vector 120  scenario.node[5].prot  collisions  ETV
vector 140  scenario.node[6].prot  nodeId  ETV
vector 141  scenario.node[6].prot  busyTime  ETV
vector 142  scenario.node[6].prot  collisions  ETV
vector 162  scenario.node[7].prot  nodeId  ETV
vector 163  scenario.node[7].prot  busyTime  ETV
vector 164  scenario.node[7].prot  collisions  ETV
7	11268 13859 232 328174 1.11 59.91 589 -1.5 1.5 -14.445953361693 993.24092335941
6	25127 18579 232 328174 1.11 59.91 589 -1.4722746795918 1.4513434175775 -12.507247963452 675.29835166926
5	43706 12081 232 328174 1.11 59.91 589 36.55 36.55 21527.95 786846.5725
4	55787 17912 232 328174 1.11 59.91 589 362.34596748392 2326.6620978038 792732.64376868 1256616642.0292
3	73699 17913 232 328174 1.11 59.91 589 32.043521415285 35.298048086563 19676.061011579 657739.0394163
1	91612 9725 232 328174 1.11 59.91 589 0 0 0 0
0	101337 10314 232 328174 1.11 59.91 589 -1 -1 -589 589
2	111651 9725 232 328174 1.11 59.91 589 0 0 0 0
10	121376 858 5056 328550 2 60 59 0 0 0 0
9	122234 1558 5056 328550 2 60 59 0.022765269304 0.02625639482 1.545262117152 0.040483719416442
8	123792 799 5056 328550 2 60 59 0 0 0 0
29	124591 20159 233 328175 1.11 59.91 589 -1.9952324752525 1.9887892248372 -12.833002121059 522.93845158124
28	144750 20166 233 328175 1.11 59.91 589 -1.7216163504422 1.7124376202382 -12.569840433835 364.13310570851
27	164916 12670 233 328175 1.11 59.91 589 36.55 36.55 21527.95 786846.5725
26	177586 18492 233 328175 1.11 59.91 589 316.6792804718 2244.3317304145 760518.43375905 1164807214.5723
25	196078 18494 233 328175 1.11 59.91 589 31.83569142147 35.288997400888 19309.418441917 633567.89331853
23	214572 19159 233 328175 1.11 59.91 589 -1.2227421649552 2.5448743087198 366.76764214198 899.3145595717
22	233731 18491 233 328175 1.11 59.91 589 40.621032237567 78.329731888865 29850.877158229 1593782.8997349
24	252222 10314 233 328175 1.11 59.91 589 1 1 589 589
36	262536 23663 836 328222 1.269561112846 59.969564924624 588 0.099988960014 0.100002127099 58.800005772296 5.8800011673409
35	286199 23663 836 328222 1.269561112846 59.969564924624 588 0.099988960014 0.100002127099 58.800005772296 5.8800011673409
34	309862 16094 836 328222 1.269561112846 59.969564924624 588 1 1 588 588
33	325956 16094 836 328222 1.269561112846 59.969564924624 588 1 1 588 588
32	342050 858 5057 328551 2 60 59 0 0 0 0
31	342908 1620 5057 328551 2 60 59 0.022765421631 0.026256396252 1.545262391777 0.04048373277278
30	344528 858 5057 328551 2 60 59 1 1 59 59
51	345386 20100 234 328176 1.11 59.91 589 -1.4546519809226 1.4426050690895 -12.628949109549 288.70623025752
50	365486 20121 234 328176 1.11 59.91 589 -1.2932237396718 1.2693223599861 -12.571251983326 205.8283110613
49	385607 12670 234 328176 1.11 59.91 589 36.55 36.55 21527.95 786846.5725
48	398277 18489 234 328176 1.11 59.91 589 271.01262397766 2199.6690531767 733839.85207781 1097431849.9634
47	416766 18499 234 328176 1.11 59.91 589 32.077872011743 34.956033762822 19319.458211859 634105.06627495
45	435265 20177 234 328176 1.11 59.91 589 -0.38765549319162 0.35861255348658 -9.9140715374876 17.133869047867
44	455442 18500 234 328176 1.11 59.91 589 40.662680009845 42.319261903176 24322.782476643 1004581.3633039
46	473942 10314 234 328176 1.11 59.91 589 2 2 1178 2356
58	484256 23707 1046 328426 1.299194093105 59.999184863236 588 0.099988959214 0.100002127068 58.799992730649 5.8799985591267
57	507963 23690 842 328228 1.269561265173 59.969565073603 588 0.099988959914 0.100002127099 58.800005768948 5.8800011666713
56	531653 16134 1046 328426 1.299194093105 59.999184863236 588 2 2 1176 2352
55	547787 16126 842 328228 1.269561265173 59.969565073603 588 2 2 1176 2352
54	563913 858 5058 328552 2 60 59 0 0 0 0
53	564771 1619 5058 328552 2 60 59 0.022765573959 0.026256395136 1.545262540756 0.040483739532592
52	566390 858 5058 328552 2 60 59 2 2 118 236
73	567248 19970 235 328177 1.11 59.91 589 -1.5632965802527 1.5516948165283 -13.202182505999 327.56580467821
72	587218 20002 235 328177 1.11 59.91 589 -1.3303288565275 1.3177790313996 -12.574315849141 220.70083200415
71	607220 12670 235 328177 1.11 59.91 589 36.55 36.55 21527.95 786846.5725
70	619890 18504 235 328177 1.11 59.91 589 225.34595222473 2155.0038032609 707126.36719131 1032364432.9058
69	638394 18496 235 328177 1.11 59.91 589 32.078645923138 34.898800025938 19329.472691856 634755.54703282
67	656890 20271 235 328177 1.11 59.91 589 -0.13209165701399 0.12654727257491 -9.8887674780224 1.8050552487193
66	677161 18495 235 328177 1.11 59.91 589 40.665265393993 41.99045979821 24357.685176098 1007434.3610122
68	695656 10314 235 328177 1.11 59.91 589 3 3 1767 5301
80	705970 23703 1180 328575 1.300202854743 60.000206608231 588 0.099988959146 0.100002127054 58.799992714006 5.8799985557986
79	729673 23678 848 328234 1.269561417501 59.96956522259 588 0.099988959934 0.100002127098 58.800005765607 5.8800011660031
78	753351 16109 1180 328575 1.300202854743 60.000206608231 588 3 3 1764 5292
77	769460 16102 848 328234 1.269561417501 59.96956522259 588 3 3 1764 5292
76	785562 858 5059 328553 2 60 59 0 0 0 0
75	786420 1619 5059 328553 2 60 59 0.022764421631 0.026256395167 1.545261391769 0.040483687242507
74	788039 858 5059 328553 2 60 59 3 3 177 531
95	788897 19870 236 328178 1.11 59.91 589 -1.5168219237201 1.5106738950043 -13.363685473446 311.62060840699
94	808767 19925 236 328178 1.11 59.91 589 -1.2928257364152 1.2843670119132 -12.553551631618 210.15520163068
93	828692 12670 236 328178 1.11 59.91 589 36.55 36.55 21527.95 786846.5725
92	841362 18495 236 328178 1.11 59.91 589 179.67929573059 2110.3293126295 680381.50162033 969617493.85168
91	859857 18490 236 328178 1.11 59.91 589 32.081414810181 34.862965183249 19339.395275924 635386.27571748
89	878347 20283 236 328178 1.11 59.91 589 -0.076217474674358 0.053887629142032 -9.7968409090075 0.7253955829766
88	898630 18495 236 328178 1.11 59.91 589 40.674546009162 41.898245464505 24389.064022658 1010008.3734619
90	917125 10314 236 328178 1.11 59.91 589 4 4 2356 9424
102	927439 24294 1312 328707 1.306021616381 60.006064353473 588 0.099897969827 0.10009310503 58.79997969761 5.8799970751394
101	951733 24278 854 328240 1.269561569828 59.969565371607 588 0.09998895992 0.100002127098 58.800005762297 5.8800011653411
100	976011 16706 1312 328707 1.306021616381 60.006064353473 588 4 4 2352 9408
99	992717 16114 854 328240 1.269561569828 59.969565371607 588 4 4 2352 9408
98	1008831 858 5060 328554 2 60 59 0 0 0 0
97	1009689 1615 5060 328554 2 60 59 0.022765269304 0.026256395234 1.545262242752 0.04048372601057
96	1011304 858 5060 328554 2 60 59 4 4 236 944
117	1012162 20478 237 328179 1.11 59.91 589 -1.4359257308392 1.4349058202449 -11.935550532004 280.00496354792
116	1032640 20500 237 328179 1.11 59.91 589 -1.2576585051185 1.2513938457602 -12.474179957263 198.60306276186
115	1053140 13259 237 328179 1.11 59.91 589 36.55 36.55 21527.95 786846.5725
114	1066399 19082 237 328179 1.11 59.91 589 134.01262397766 2065.631114203 653608.78586966 909204608.06789
113	1085481 19080 237 328179 1.11 59.91 589 32.088507334153 34.827248712359 19349.082318243 636000.73513965
111	1104561 20859 237 328179 1.11 59.91 589 -0.061227440768334 0.053705074586532 -9.561506802917 0.61687748641759
110	1125420 19086 237 328179 1.11 59.91 589 40.698340276996 41.865452620975 24416.909491519 1012292.7263825
112	1144506 10903 237 328179 1.11 59.91 589 5 5 2945 14725
124	1155409 24291 1112 328498 1.299594550088 59.999598310335 588 0.099988959218 0.100002127065 58.800005720765 5.8800011570337
123	1179700 24270 860 328246 1.269561722156 59.969565520703 588 0.099988959908 0.100002127095 58.800005759065 5.8800011646947
122	1203970 16702 1112 328498 1.299594550088 59.999598310335 588 5 5 2940 14700
121	1220672 16693 860 328246 1.269561722156 59.969565520703 588 5 5 2940 14700
120	1237365 917 5061 328555 2 60 59 0 0 0 0
119	1238282 1674 5061 328555 2 60 59 0.022764116976 0.026256395369 1.545261093656 0.040483673715464
118	1239956 917 5061 328555 2 60 59 5 5 295 1475
139	1240873 20406 238 328180 1.11 59.91 589 -1.4400171558042 1.4373872785621 -13.539235182092 281.76870924837
138	1261279 20452 238 328180 1.11 59.91 589 -1.2276841069188 1.2238505066797 -12.358246617416 189.81336712855
137	1281731 13259 238 328180 1.11 59.91 589 36.55 36.55 21527.95 786846.5725
136	1294990 19094 238 328180 1.11 59.91 589 88.345956039429 2020.8864920267 626811.94431427 851140969.47596
135	1314084 19095 238 328180 1.11 59.91 589 32.102411523847 34.792769428035 19358.307711908 636586.94868089
133	1333179 20830 238 328180 1.11 59.91 589 -0.051025301153089 0.037593210899054 -9.1006518658084 0.49468068895076
132	1354009 19064 238 328180 1.11 59.91 589 40.744900260086 41.830330853049 24441.026063266 1014271.2348625
134	1373073 10903 238 328180 1.11 59.91 589 6 6 3534 21204
146	1383976 24290 1249 328644 1.305608311726 60.005612055592 588 0.099988959214 0.100002127057 58.800005704384 5.8800011537574
145	1408266 24270 866 328252 1.269561874484 59.969565669953 588 0.099988959897 0.10000212709 58.800005755987 5.8800011640791
144	1432536 16710 1249 328644 1.305608311726 60.005612055592 588 6 6 3528 21168
143	1449246 16693 866 328252 1.269561874484 59.969565669953 588 6 6 3528 21168
142	1465939 917 5062 328556 2 60 59 0 0 0 0
141	1466856 1673 5062 328556 2 60 59 0.022764964649 0.026256395482 1.545261944408 0.040483712470886
140	1468529 917 5062 328556 2 60 59 6 6 354 2124
161	1469446 20494 239 328181 1.11 59.91 589 -1.3694253644264 1.368043685721 -11.223943187845 254.41614605446
160	1489940 20411 239 328181 1.11 59.91 589 -1.1973870697659 1.1938057497588 -12.124928825403 180.57734354184
159	1510351 13259 239 328181 1.11 59.91 589 36.55 36.55 21527.95 786846.5725
158	1523610 19090 239 328181 1.11 59.91 589 42.679290962219 1976.069856283 599995.59657152 795445356.86022
157	1542700 19084 239 328181 1.11 59.91 589 32.124161423702 34.758630413246 19366.815378913 637126.9363328
155	1561784 20807 239 328181 1.11 59.91 589 -0.043648439743805 0.036827579620962 -8.3840845385976 0.42988110537571
154	1582591 19081 239 328181 1.11 59.91 589 40.817070741655 41.808815475908 24460.517896094 1015870.4415301
156	1601672 10903 239 328181 1.11 59.91 589 7 7 4123 28861
168	1612575 24272 980 328366 1.292098331467 59.992102118416 588 0.099988959393 0.100002127069 58.799992747467 5.8799985624912
167	1636847 24285 872 328258 1.269562026811 59.969565819442 588 0.099988959889 0.100002127083 58.800005753149 5.8800011635115
166	1661132 16703 980 328366 1.292098331467 59.992102118416 588 7 7 4116 28812
165	1677835 16704 872 328258 1.269562026811 59.969565819442 588 7 7 4116 28812
164	1694539 917 5063 328557 2 60 59 0 0 0 0
163	1695456 1674 5063 328557 2 60 59 0.022764812321 0.026256395585 1.545261794922 0.040483705684633
162	1697130 917 5063 328557 2 60 59 7 7 413 2891
