file 1683984 1501510609                                         
version 2
run SinusoidalJammingAttack-117-20170731-16:16:20-103588
attr CACCSpacing 5
attr attackAcc -30
attr attackPos 7
attr attackSpeed 150
attr attackStart 30
attr attacker 1
attr beaconInterval 0.1
attr configname SinusoidalJammingAttack
attr controller 2
attr datetime 20170731-16:16:20
attr experiment SinusoidalJammingAttack
attr fakeAcc "(1 == 4)"
attr fakePos "(1 == 2)"
attr fakeSpeed "(1 == 3)"
attr inifile omnetpp_117.ini
attr iterationvars "$leaderSpeed=150, $controller=2, $CACCSpacing=5, $sController=\"PLOEG\", $attacker=1, $attackStart=30, $attackSpeed=150, $attackPos=7, $attackAcc=-30, $0=2, $1=0.5, $nCars=8, $platoonSize=8, $nLanes=1, $beaconInterval=0.1, $priority=2, $packetSize=200, $ploegH=0.5, $leaderHeadway=1.2, $fakeSpeed=(1 == 3), $fakeAcc=(1 == 4), $fakePos=(1 == 2)"
attr iterationvarsf leaderSpeed=150,controller=2,CACCSpacing=5,sController=PLOEG,attacker=1,attackStart=30,attackSpeed=150,attackPos=7,attackAcc=-30,2,0.5,nCars=8,platoonSize=8,nLanes=1,beaconInterval=0.1,priority=2,packetSize=200,ploegH=0.5,leaderHeadway=1.2,fakeSpeed=(1_==_3),fakeAcc=(1_==_4),fakePos=(1_==_2)-
attr leaderHeadway 1.2
attr leaderSpeed 150
attr measurement "$leaderSpeed=150, $controller=2, $CACCSpacing=5, $sController=\"PLOEG\", $attacker=1, $attackStart=30, $attackSpeed=150, $attackPos=7, $attackAcc=-30, $0=2, $1=0.5, $nCars=8, $platoonSize=8, $nLanes=1, $beaconInterval=0.1, $priority=2, $packetSize=200, $ploegH=0.5, $leaderHeadway=1.2, $fakeSpeed=(1 == 3), $fakeAcc=(1 == 4), $fakePos=(1 == 2)"
attr nCars 8
attr nLanes 1
attr network scenario
attr packetSize 200
attr platoonSize 8
attr ploegH 0.5
attr priority 2
attr processid 103588
attr repetition 2
attr replication #2
attr resultdir results
attr runnumber 117
attr sController "\"PLOEG\""
attr seedset 2
param **.coreDebug false
param **.debug false
param **.headway 0.1s
param **.numberOfCars 8
param **.numberOfCarsPerPlatoon 8
param **.numberOfLanes 1
param **.numericController 2
param **.traffic.nCars 8
param **.traffic.nLanes 1
param **.traffic.platoonInsertDistance 2m
param **.traffic.platoonInsertHeadway 0.5s
param **.traffic.platoonInsertSpeed 150kmph
param **.traffic.platoonInsertTime "1 s"
param **.traffic.platoonLeaderHeadway 1.2s
param **.traffic.platoonSize 8
param **.traffic.platooningVType "\"vtypeauto\""
param **.traffic_type "\"PlatoonsTrafficManager\""
param *.**.nic.mac1609_4.bitrate 6Mbps
param *.**.nic.mac1609_4.txPower 100mW
param *.**.nic.mac1609_4.useServiceChannel false
param *.**.nic.phy80211p.analogueModels "xmldoc(\"config.xml\")"
param *.**.nic.phy80211p.decider "xmldoc(\"config.xml\")"
param *.**.nic.phy80211p.maxTXPower 100mW
param *.**.nic.phy80211p.sensitivity -94dBm
param *.**.nic.phy80211p.thermalNoise -95dBm
param *.**.nic.phy80211p.usePropagationDelay true
param *.**.nic.phy80211p.useThermalNoise true
param *.annotations.draw false
param *.connectionManager.alpha 2.0
param *.connectionManager.carrierFrequency "5.890e9 Hz"
param *.connectionManager.pMax 100mW
param *.connectionManager.sat -94dBm
param *.connectionManager.sendDirect true
param *.manager.autoShutdown true
param *.manager.commandLine "\"sumo --remote-port $port --seed $seed --configuration-file $configFile\""
param *.manager.configFile "\"./sumocfg/freeway.sumo.cfg\""
param *.manager.host "\"localhost\""
param *.manager.margin 25
param *.manager.moduleDisplayString "\"\""
param *.manager.moduleName "\"node\""
param *.manager.moduleType "\"Car\""
param *.manager.updateInterval 0.01s
param *.node[*].appl.attackStart 30s
param *.node[*].appl.attackerType 1
param *.node[*].appl.simulationDuration "60 s"
param *.node[*].appl_type "\"SimplePlatooningApp\""
param *.node[*].helper.nCars 8
param *.node[*].helper.nLanes 1
param *.node[*].helper.platoonSize 8
param *.node[*].helper_type "\"PositionHelper\""
param *.node[*].mobility.x 0
param *.node[*].mobility.y 0
param *.node[*].mobility.z 1.895
param *.node[*].prot.attackStart 30s
param *.node[*].prot.attackerType 1
param *.node[*].prot.attackingNode 3
param *.node[*].prot.beaconingInterval 0.1s
param *.node[*].prot.fakeAcc "(1 == 4)"
param *.node[*].prot.fakePos "(1 == 2)"
param *.node[*].prot.fakeSpeed "(1 == 3)"
param *.node[*].prot.maliciousAcc "-30 mpss"
param *.node[*].prot.maliciousSpeed 150kmph
param *.node[*].prot.packetSize 200
param *.node[*].prot.priority 2
param *.node[*].prot.shiftX "7 m"
param *.node[*].prot.useControllerAcceleration true
param *.node[*].protocol_type "\"SimplePlatooningBeaconing\""
param *.node[*].scenario.accHeadway 0.1s
param *.node[*].scenario.caccC1 0.5
param *.node[*].scenario.caccOmegaN "0.2 Hz"
param *.node[*].scenario.caccSpacing 5m
param *.node[*].scenario.caccXi 1
param *.node[*].scenario.controller "\"PLOEG\""
param *.node[*].scenario.engineTau "0.5 s"
param *.node[*].scenario.leaderHeadway 1.2s
param *.node[*].scenario.leaderOscillationFrequency "0.2 Hz"
param *.node[*].scenario.leaderSpeed 150kmph
param *.node[*].scenario.oscillationAmplitude "10 kmph"
param *.node[*].scenario.ploegH 0.5s
param *.node[*].scenario.ploegKd 0.7
param *.node[*].scenario.ploegKp 0.2
param *.node[*].scenario.startOscillating "5 s"
param *.node[*].scenario.useRealisticEngine false
param *.node[*].scenario_type "\"SinusoidalScenario\""
param *.node[*].unicast.packetLossRate 0
param *.obstacles.debug false
param *.playgroundSizeX 65000m
param *.playgroundSizeY 25000m
param *.playgroundSizeZ 50m
param *.world.use2D false
param *.world.useTorus false

vector 0  scenario.node[0].appl  distance  ETV
vector 1  scenario.node[0].appl  relativeSpeed  ETV
vector 2  scenario.node[0].appl  nodeId  ETV
vector 6  scenario.node[0].appl  acceleration  ETV
vector 7  scenario.node[0].appl  controllerAcceleration  ETV
vector 3  scenario.node[0].appl  speed  ETV
vector 4  scenario.node[0].appl  posx  ETV
vector 5  scenario.node[0].appl  posy  ETV
vector 22  scenario.node[1].appl  distance  ETV
vector 23  scenario.node[1].appl  relativeSpeed  ETV
vector 24  scenario.node[1].appl  nodeId  ETV
vector 28  scenario.node[1].appl  acceleration  ETV
vector 29  scenario.node[1].appl  controllerAcceleration  ETV
vector 25  scenario.node[1].appl  speed  ETV
vector 26  scenario.node[1].appl  posx  ETV
vector 27  scenario.node[1].appl  posy  ETV
vector 44  scenario.node[2].appl  distance  ETV
vector 45  scenario.node[2].appl  relativeSpeed  ETV
vector 46  scenario.node[2].appl  nodeId  ETV
vector 50  scenario.node[2].appl  acceleration  ETV
vector 51  scenario.node[2].appl  controllerAcceleration  ETV
vector 47  scenario.node[2].appl  speed  ETV
vector 48  scenario.node[2].appl  posx  ETV
vector 49  scenario.node[2].appl  posy  ETV
vector 66  scenario.node[3].appl  distance  ETV
vector 67  scenario.node[3].appl  relativeSpeed  ETV
vector 68  scenario.node[3].appl  nodeId  ETV
vector 72  scenario.node[3].appl  acceleration  ETV
vector 73  scenario.node[3].appl  controllerAcceleration  ETV
vector 69  scenario.node[3].appl  speed  ETV
vector 70  scenario.node[3].appl  posx  ETV
vector 71  scenario.node[3].appl  posy  ETV
vector 88  scenario.node[4].appl  distance  ETV
vector 89  scenario.node[4].appl  relativeSpeed  ETV
vector 90  scenario.node[4].appl  nodeId  ETV
vector 94  scenario.node[4].appl  acceleration  ETV
vector 95  scenario.node[4].appl  controllerAcceleration  ETV
vector 91  scenario.node[4].appl  speed  ETV
vector 92  scenario.node[4].appl  posx  ETV
vector 93  scenario.node[4].appl  posy  ETV
vector 110  scenario.node[5].appl  distance  ETV
vector 111  scenario.node[5].appl  relativeSpeed  ETV
vector 112  scenario.node[5].appl  nodeId  ETV
vector 116  scenario.node[5].appl  acceleration  ETV
vector 117  scenario.node[5].appl  controllerAcceleration  ETV
vector 113  scenario.node[5].appl  speed  ETV
vector 114  scenario.node[5].appl  posx  ETV
vector 115  scenario.node[5].appl  posy  ETV
vector 132  scenario.node[6].appl  distance  ETV
vector 133  scenario.node[6].appl  relativeSpeed  ETV
vector 134  scenario.node[6].appl  nodeId  ETV
vector 138  scenario.node[6].appl  acceleration  ETV
vector 139  scenario.node[6].appl  controllerAcceleration  ETV
vector 135  scenario.node[6].appl  speed  ETV
vector 136  scenario.node[6].appl  posx  ETV
vector 137  scenario.node[6].appl  posy  ETV
vector 154  scenario.node[7].appl  distance  ETV
vector 155  scenario.node[7].appl  relativeSpeed  ETV
vector 156  scenario.node[7].appl  nodeId  ETV
vector 160  scenario.node[7].appl  acceleration  ETV
vector 161  scenario.node[7].appl  controllerAcceleration  ETV
vector 157  scenario.node[7].appl  speed  ETV
vector 158  scenario.node[7].appl  posx  ETV
vector 159  scenario.node[7].appl  posy  ETV
vector 168  scenario.node[7].prot  frontDelay  ETV
vector 166  scenario.node[7].prot  frontDelayId  ETV
vector 146  scenario.node[6].prot  frontDelay  ETV
vector 144  scenario.node[6].prot  frontDelayId  ETV
vector 35  scenario.node[1].prot  leaderDelay  ETV
vector 33  scenario.node[1].prot  leaderDelayId  ETV
vector 36  scenario.node[1].prot  frontDelay  ETV
vector 34  scenario.node[1].prot  frontDelayId  ETV
vector 57  scenario.node[2].prot  leaderDelay  ETV
vector 55  scenario.node[2].prot  leaderDelayId  ETV
vector 79  scenario.node[3].prot  leaderDelay  ETV
vector 77  scenario.node[3].prot  leaderDelayId  ETV
vector 101  scenario.node[4].prot  leaderDelay  ETV
vector 99  scenario.node[4].prot  leaderDelayId  ETV
vector 123  scenario.node[5].prot  leaderDelay  ETV
vector 121  scenario.node[5].prot  leaderDelayId  ETV
vector 145  scenario.node[6].prot  leaderDelay  ETV
vector 143  scenario.node[6].prot  leaderDelayId  ETV
vector 167  scenario.node[7].prot  leaderDelay  ETV
vector 165  scenario.node[7].prot  leaderDelayId  ETV
vector 102  scenario.node[4].prot  frontDelay  ETV
vector 100  scenario.node[4].prot  frontDelayId  ETV
vector 80  scenario.node[3].prot  frontDelay  ETV
vector 78  scenario.node[3].prot  frontDelayId  ETV
vector 124  scenario.node[5].prot  frontDelay  ETV
vector 122  scenario.node[5].prot  frontDelayId  ETV
vector 58  scenario.node[2].prot  frontDelay  ETV
vector 56  scenario.node[2].prot  frontDelayId  ETV
vector 8  scenario.node[0].prot  nodeId  ETV
vector 9  scenario.node[0].prot  busyTime  ETV
vector 10  scenario.node[0].prot  collisions  ETV
vector 30  scenario.node[1].prot  nodeId  ETV
vector 31  scenario.node[1].prot  busyTime  ETV
vector 32  scenario.node[1].prot  collisions  ETV
vector 52  scenario.node[2].prot  nodeId  ETV
vector 53  scenario.node[2].prot  busyTime  ETV
vector 54  scenario.node[2].prot  collisions  ETV
vector 74  scenario.node[3].prot  nodeId  ETV
vector 75  scenario.node[3].prot  busyTime  ETV
vector 76  scenario.node[3].prot  collisions  ETV
vector 96  scenario.node[4].prot  nodeId  ETV
vector 97  scenario.node[4].prot  busyTime  ETV
vector 98  scenario.node[4].prot  collisions  ETV
vector 118  scenario.node[5].prot  nodeId  ETV
vector 119  scenario.node[5].prot  busyTime  ETV
vector 120  scenario.node[5].prot  collisions  ETV
vector 140  scenario.node[6].prot  nodeId  ETV
vector 141  scenario.node[6].prot  busyTime  ETV
vector 142  scenario.node[6].prot  collisions  ETV
vector 162  scenario.node[7].prot  nodeId  ETV
vector 163  scenario.node[7].prot  busyTime  ETV
vector 164  scenario.node[7].prot  collisions  ETV
7	11247 13862 232 328174 1.11 59.91 589 -1.5 1.5 -14.445978168666 993.24092374633
6	25109 18591 232 328174 1.11 59.91 589 -1.4722746794739 1.4513434175775 -12.507273387293 675.29835233824
5	43700 12081 232 328174 1.11 59.91 589 36.55 36.55 21527.95 786846.5725
4	55781 17908 232 328174 1.11 59.91 589 226.89330558737 2681.2094381742 857256.02723689 1543913480.7167
3	73689 17882 232 328174 1.11 59.91 589 40.376854748618 43.631381416411 24584.394369227 1026576.1694128
1	91571 9725 232 328174 1.11 59.91 589 0 0 0 0
0	101296 10314 232 328174 1.11 59.91 589 -1 -1 -589 589
2	111610 9725 232 328174 1.11 59.91 589 0 0 0 0
10	121335 858 5168 328662 2 60 59 0 0 0 0
9	122193 1154 5168 328662 2 60 59 0.023297 0.02625 1.545797 0.040508375209
8	123347 799 5168 328662 2 60 59 0 0 0 0
29	124146 19124 233 328175 1.11 59.91 589 -1.5368751592696 1.5 4.5189581325984 514.77113279539
28	143270 19344 233 328175 1.11 59.91 589 -1.4452180916933 1.3653903324482 6.2332678033968 371.47458830116
27	162614 12670 233 328175 1.11 59.91 589 36.55 36.55 21527.95 786846.5725
26	175284 18493 233 328175 1.11 59.91 589 200.05996208191 2658.778956692 842512.60035299 1502964421.6961
25	193777 18482 233 328175 1.11 59.91 589 40.512056357686 43.664837440799 24629.07727021 1030178.0316431
23	212259 19385 233 328175 1.11 59.91 589 -3.0802527950434 1.8889528128448 -44.557828249307 603.80589903971
22	231644 18500 233 328175 1.11 59.91 589 16.822797184139 24.240688530388 12388.320541917 263802.23847032
24	250144 10314 233 328175 1.11 59.91 589 1 1 589 589
36	260458 23673 1034 328420 1.262218774697 59.962222331932 588 0.099999932647 0.10001295939 58.800003526375 5.8800007056116
35	284131 23673 1034 328420 1.262218774697 59.962222331932 588 0.099999932647 0.10001295939 58.800003526375 5.8800007056116
34	307804 16126 1034 328420 1.262218774697 59.962222331932 588 1 1 588 588
33	323930 16126 1034 328420 1.262218774697 59.962222331932 588 1 1 588 588
32	340056 858 5169 328663 2 60 59 0 0 0 0
31	340914 1213 5169 328663 2 60 59 0.023296 0.02625 1.545796 0.040508328616
30	342127 858 5169 328663 2 60 59 1 1 59 59
51	342985 19332 234 328176 1.11 59.91 589 -1.5020343700358 1.4239263260175 6.6996435096517 404.46830954047
50	362317 19392 234 328176 1.11 59.91 589 -1.354432990005 1.2681580276592 5.903478619372 295.04684511787
49	381709 12670 234 328176 1.11 59.91 589 36.55 36.55 21527.95 786846.5725
48	394379 18494 234 328176 1.11 59.91 589 173.22663383484 2631.6269443637 826665.39821896 1458080207.9796
47	412873 18491 234 328176 1.11 59.91 589 40.622210727648 43.583110871871 24625.875129101 1029857.83396
45	431364 19530 234 328176 1.11 59.91 589 -0.68794289697624 0.63909625325617 3.1398084314768 79.684064374757
44	450894 18487 234 328176 1.11 59.91 589 22.281415001103 23.809100188728 13491.138091212 309087.08026145
46	469381 10314 234 328176 1.11 59.91 589 2 2 1178 2356
58	479695 23672 1312 328707 1.302598580254 60.002602144174 588 0.099999932011 0.100012959521 58.80000353306 5.8800007069483
57	503367 23668 1040 328426 1.262218864204 59.962222422507 588 0.099999932627 0.100012959383 58.800003527443 5.8800007058252
56	527035 16126 1312 328707 1.302598580254 60.002602144174 588 2 2 1176 2352
55	543161 16124 1040 328426 1.262218864204 59.962222422507 588 2 2 1176 2352
54	559285 858 5170 328664 2 60 59 0 0 0 0
53	560143 1213 5170 328664 2 60 59 0.023297 0.02625 1.545797 0.040508375209
52	561356 858 5170 328664 2 60 59 2 2 118 236
73	562214 19399 235 328177 1.11 59.91 589 -1.4075544969405 1.3161144810629 6.0649296597081 321.07332099291
72	581613 19474 235 328177 1.11 59.91 589 -1.2452157771406 1.2121149110307 3.6070648144047 235.7704165567
71	601087 12670 235 328177 1.11 59.91 589 36.55 36.55 21527.95 786846.5725
70	613757 18502 235 328177 1.11 59.91 589 146.39329795837 2604.5848661136 810819.41669549 1414053534.9963
69	632259 18493 235 328177 1.11 59.91 589 40.71593934173 43.50672347886 24623.704857875 1029635.6585365
67	650752 19592 235 328177 1.11 59.91 589 -0.63471143879947 0.61225309732742 2.1112364396461 63.591859823913
66	670344 18498 235 328177 1.11 59.91 589 22.33225653159 23.770308111783 13489.938118042 309020.6395371
68	688842 10314 235 328177 1.11 59.91 589 3 3 1767 5301
80	699156 23687 1176 328556 1.287875132722 59.987878693252 588 0.09999993236 0.100012981333 58.80000352967 5.8800007062711
79	722843 23630 1046 328432 1.26221895371 59.962222512748 588 0.099999932537 0.10001295929 58.800003528178 5.8800007059722
78	746473 16132 1176 328556 1.287875132722 59.987878693252 588 3 3 1764 5292
77	762605 16089 1046 328432 1.26221895371 59.962222512748 588 3 3 1764 5292
76	778694 858 5171 328665 2 60 59 0 0 0 0
75	779552 1213 5171 328665 2 60 59 0.023297 0.02625 1.545797 0.040508375209
74	780765 858 5171 328665 2 60 59 3 3 177 531
95	781623 19430 236 328178 1.11 59.91 589 -1.2975794119256 1.2592216644474 3.4877237493291 256.72275096242
94	801053 19557 236 328178 1.11 59.91 589 -1.1384637979198 1.1564108594811 0.56535819279091 188.79287347667
93	820610 12670 236 328178 1.11 59.91 589 36.55 36.55 21527.95 786846.5725
92	833280 18500 236 328178 1.11 59.91 589 119.5599697113 2577.7003455687 794973.9409139 1370880393.2162
91	851780 18488 236 328178 1.11 59.91 589 40.79716125875 43.436128356751 24623.085826556 1029552.2120942
89	870268 19592 236 328178 1.11 59.91 589 -0.5814881619902 0.58447451032988 0.58296067026311 50.858134219916
88	889860 18491 236 328178 1.11 59.91 589 22.376135829825 23.733579322369 13489.463400968 308989.97997762
90	908351 10314 236 328178 1.11 59.91 589 4 4 2356 9424
102	918665 24240 1108 328488 1.276581043216 59.976584602486 588 0.099999932433 0.100012986973 58.80000352841 5.8800007060192
101	942905 24255 1052 328438 1.262219043216 59.962222602476 588 0.099999932433 0.100012959145 58.8000035284 5.8800007060166
100	967160 16693 1108 328488 1.276581043216 59.976584602486 588 4 4 2352 9408
99	983853 16122 1052 328438 1.262219043216 59.962222602476 588 4 4 2352 9408
98	999975 858 5172 328666 2 60 59 0 0 0 0
97	1000833 1213 5172 328666 2 60 59 0.023297 0.02625 1.545797 0.040508375209
96	1002046 858 5172 328666 2 60 59 4 4 236 944
117	1002904 20107 237 328179 1.11 59.91 589 -1.1848237264886 1.200085459719 0.25953747397945 205.26813364561
116	1023011 20168 237 328179 1.11 59.91 589 -1.0372261334197 1.0996856849971 -1.9996296287609 151.44885018463
115	1043179 13259 237 328179 1.11 59.91 589 36.55 36.55 21527.95 786846.5725
114	1056438 19089 237 328179 1.11 59.91 589 92.726633834839 2550.9571737671 779128.18921264 1328556705.5748
113	1075527 19092 237 328179 1.11 59.91 589 40.871102536595 43.369606587776 24623.898721609 1029594.2511707
111	1094619 20228 237 328179 1.11 59.91 589 -0.53004521430739 0.55595062217005 -0.81854863480397 40.695708886984
110	1114847 19088 237 328179 1.11 59.91 589 22.415463327307 23.698912948937 13489.767959154 308996.71901077
112	1133935 10903 237 328179 1.11 59.91 589 5 5 2945 14725
124	1144838 24244 1244 328624 1.297505311735 59.997508872274 588 0.099999932176 0.100012974749 58.800003529679 5.8800007062727
123	1169082 24250 1058 328444 1.262219132723 59.962222691724 588 0.099999932353 0.100012958993 58.800003528141 5.8800007059648
122	1193332 16706 1244 328624 1.297505311735 59.997508872274 588 5 5 2940 14700
121	1210038 16710 1058 328444 1.262219132723 59.962222691724 588 5 5 2940 14700
120	1226748 917 5173 328667 2 60 59 0 0 0 0
119	1227665 1272 5173 328667 2 60 59 0.023297 0.02625 1.545797 0.040508375209
118	1228937 917 5173 328667 2 60 59 5 5 295 1475
139	1229854 20147 238 328180 1.11 59.91 589 -1.0795228427791 1.1389615946942 -2.32455022816 163.92988589125
138	1250001 20191 238 328180 1.11 59.91 589 -0.94671702239921 1.0431598354025 -3.2904121535857 122.34497916706
137	1270192 13259 238 328180 1.11 59.91 589 36.55 36.55 21527.95 786846.5725
136	1283451 19082 238 328180 1.11 59.91 589 65.893301773071 2524.2919356696 763281.64631203 1287079878.7825
135	1302533 19081 238 328180 1.11 59.91 589 40.939833353035 43.306909302651 24625.5364411 1029709.5038559
133	1321614 20210 238 328180 1.11 59.91 589 -0.48340279388334 0.5272635648055 -1.6177231945627 32.747401411204
132	1341824 19084 238 328180 1.11 59.91 589 22.451971088961 23.665863537096 13490.575655006 309027.69214123
134	1360908 10903 238 328180 1.11 59.91 589 6 6 3534 21204
146	1371811 24261 970 328350 1.247596327165 59.947599912011 588 0.099999931653 0.10001296265 58.800003553986 5.8800007111336
145	1396072 24234 1064 328450 1.262219222229 59.962222780691 588 0.099999932322 0.100012958877 58.800003527602 5.880000705857
144	1420306 16718 970 328350 1.247596327165 59.947599912011 588 6 6 3528 21168
143	1437024 16689 1064 328450 1.262219222229 59.962222780691 588 6 6 3528 21168
142	1453713 917 5174 328668 2 60 59 0 0 0 0
141	1454630 1272 5174 328668 2 60 59 0.023297 0.02625 1.545797 0.040508375209
140	1455902 917 5174 328668 2 60 59 6 6 354 2124
161	1456819 20191 239 328181 1.11 59.91 589 -0.98715413943436 1.0811127788501 -3.5361815433776 132.8851275448
160	1477010 20210 239 328181 1.11 59.91 589 -0.86778463856518 0.9890565201637 -3.1490162377899 99.894087897458
159	1497220 13259 239 328181 1.11 59.91 589 36.55 36.55 21527.95 786846.5725
158	1510479 19095 239 328181 1.11 59.91 589 39.059966850281 2497.628351261 747434.19762423 1246449428.3012
157	1529574 19088 239 328181 1.11 59.91 589 41.00272235265 43.249201646209 24627.240917159 1029834.3896562
155	1548662 20305 239 328181 1.11 59.91 589 -0.44267539145203 0.49964901018289 -1.6715719377088 26.642012779878
154	1568967 19093 239 328181 1.11 59.91 589 22.485281907643 23.635329957864 13491.482777319 309064.32187561
156	1588060 10903 239 328181 1.11 59.91 589 7 7 4123 28861
168	1598963 24239 832 328212 1.212138058646 59.912128645164 588 0.099999931717 0.10001293582 58.799990555658 5.8799981113
167	1623202 24258 1070 328456 1.262219311736 59.962222869629 588 0.099999932332 0.100012958825 58.800003527033 5.8800007057432
166	1647460 16699 832 328212 1.212138058646 59.912128645164 588 7 7 4116 28812
165	1664159 16719 1070 328456 1.262219311736 59.962222869629 588 7 7 4116 28812
164	1680878 917 5175 328669 2 60 59 0 0 0 0
163	1681795 1272 5175 328669 2 60 59 0.023297 0.02625 1.545797 0.040508375209
162	1683067 917 5175 328669 2 60 59 7 7 413 2891
