file 1125050 1501509937                                         
version 2
run SinusoidalJammingAttack-75-20170731-16:05:17-22553
attr CACCSpacing 5
attr attackAcc -30
attr attackPos 7
attr attackSpeed 150
attr attackStart 30
attr attacker 1
attr beaconInterval 0.1
attr configname SinusoidalJammingAttack
attr controller 1
attr datetime 20170731-16:05:17
attr experiment SinusoidalJammingAttack
attr fakeAcc "(1 == 4)"
attr fakePos "(1 == 2)"
attr fakeSpeed "(1 == 3)"
attr inifile omnetpp_75.ini
attr iterationvars "$leaderSpeed=120, $controller=1, $CACCSpacing=5, $sController=\"CACC\", $attacker=1, $attackStart=30, $attackSpeed=150, $attackPos=7, $attackAcc=-30, $0=5, $1=0, $nCars=8, $platoonSize=8, $nLanes=1, $beaconInterval=0.1, $priority=2, $packetSize=200, $ploegH=0.5, $leaderHeadway=1.2, $fakeSpeed=(1 == 3), $fakeAcc=(1 == 4), $fakePos=(1 == 2)"
attr iterationvarsf leaderSpeed=120,controller=1,CACCSpacing=5,sController=CACC,attacker=1,attackStart=30,attackSpeed=150,attackPos=7,attackAcc=-30,5,0,nCars=8,platoonSize=8,nLanes=1,beaconInterval=0.1,priority=2,packetSize=200,ploegH=0.5,leaderHeadway=1.2,fakeSpeed=(1_==_3),fakeAcc=(1_==_4),fakePos=(1_==_2)-
attr leaderHeadway 1.2
attr leaderSpeed 120
attr measurement "$leaderSpeed=120, $controller=1, $CACCSpacing=5, $sController=\"CACC\", $attacker=1, $attackStart=30, $attackSpeed=150, $attackPos=7, $attackAcc=-30, $0=5, $1=0, $nCars=8, $platoonSize=8, $nLanes=1, $beaconInterval=0.1, $priority=2, $packetSize=200, $ploegH=0.5, $leaderHeadway=1.2, $fakeSpeed=(1 == 3), $fakeAcc=(1 == 4), $fakePos=(1 == 2)"
attr nCars 8
attr nLanes 1
attr network scenario
attr packetSize 200
attr platoonSize 8
attr ploegH 0.5
attr priority 2
attr processid 22553
attr repetition 0
attr replication #0
attr resultdir results
attr runnumber 75
attr sController "\"CACC\""
attr seedset 0
param **.coreDebug false
param **.debug false
param **.headway 0.1s
param **.numberOfCars 8
param **.numberOfCarsPerPlatoon 8
param **.numberOfLanes 1
param **.numericController 1
param **.traffic.nCars 8
param **.traffic.nLanes 1
param **.traffic.platoonInsertDistance 5m
param **.traffic.platoonInsertHeadway 0s
param **.traffic.platoonInsertSpeed 120kmph
param **.traffic.platoonInsertTime "1 s"
param **.traffic.platoonLeaderHeadway 1.2s
param **.traffic.platoonSize 8
param **.traffic.platooningVType "\"vtypeauto\""
param **.traffic_type "\"PlatoonsTrafficManager\""
param *.**.nic.mac1609_4.bitrate 6Mbps
param *.**.nic.mac1609_4.txPower 100mW
param *.**.nic.mac1609_4.useServiceChannel false
param *.**.nic.phy80211p.analogueModels "xmldoc(\"config.xml\")"
param *.**.nic.phy80211p.decider "xmldoc(\"config.xml\")"
param *.**.nic.phy80211p.maxTXPower 100mW
param *.**.nic.phy80211p.sensitivity -94dBm
param *.**.nic.phy80211p.thermalNoise -95dBm
param *.**.nic.phy80211p.usePropagationDelay true
param *.**.nic.phy80211p.useThermalNoise true
param *.annotations.draw false
param *.connectionManager.alpha 2.0
param *.connectionManager.carrierFrequency "5.890e9 Hz"
param *.connectionManager.pMax 100mW
param *.connectionManager.sat -94dBm
param *.connectionManager.sendDirect true
param *.manager.autoShutdown true
param *.manager.commandLine "\"sumo --remote-port $port --seed $seed --configuration-file $configFile\""
param *.manager.configFile "\"./sumocfg/freeway.sumo.cfg\""
param *.manager.host "\"localhost\""
param *.manager.margin 25
param *.manager.moduleDisplayString "\"\""
param *.manager.moduleName "\"node\""
param *.manager.moduleType "\"Car\""
param *.manager.updateInterval 0.01s
param *.node[*].appl.attackStart 30s
param *.node[*].appl.attackerType 1
param *.node[*].appl.simulationDuration "60 s"
param *.node[*].appl_type "\"SimplePlatooningApp\""
param *.node[*].helper.nCars 8
param *.node[*].helper.nLanes 1
param *.node[*].helper.platoonSize 8
param *.node[*].helper_type "\"PositionHelper\""
param *.node[*].mobility.x 0
param *.node[*].mobility.y 0
param *.node[*].mobility.z 1.895
param *.node[*].prot.attackStart 30s
param *.node[*].prot.attackerType 1
param *.node[*].prot.attackingNode 3
param *.node[*].prot.beaconingInterval 0.1s
param *.node[*].prot.fakeAcc "(1 == 4)"
param *.node[*].prot.fakePos "(1 == 2)"
param *.node[*].prot.fakeSpeed "(1 == 3)"
param *.node[*].prot.maliciousAcc "-30 mpss"
param *.node[*].prot.maliciousSpeed 150kmph
param *.node[*].prot.packetSize 200
param *.node[*].prot.priority 2
param *.node[*].prot.shiftX "7 m"
param *.node[*].prot.useControllerAcceleration true
param *.node[*].protocol_type "\"SimplePlatooningBeaconing\""
param *.node[*].scenario.accHeadway 0.1s
param *.node[*].scenario.caccC1 0.5
param *.node[*].scenario.caccOmegaN "0.2 Hz"
param *.node[*].scenario.caccSpacing 5m
param *.node[*].scenario.caccXi 1
param *.node[*].scenario.controller "\"CACC\""
param *.node[*].scenario.engineTau "0.5 s"
param *.node[*].scenario.leaderHeadway 1.2s
param *.node[*].scenario.leaderOscillationFrequency "0.2 Hz"
param *.node[*].scenario.leaderSpeed 120kmph
param *.node[*].scenario.oscillationAmplitude "10 kmph"
param *.node[*].scenario.ploegH 0.5s
param *.node[*].scenario.ploegKd 0.7
param *.node[*].scenario.ploegKp 0.2
param *.node[*].scenario.startOscillating "5 s"
param *.node[*].scenario.useRealisticEngine false
param *.node[*].scenario_type "\"SinusoidalScenario\""
param *.node[*].unicast.packetLossRate 0
param *.obstacles.debug false
param *.playgroundSizeX 65000m
param *.playgroundSizeY 25000m
param *.playgroundSizeZ 50m
param *.world.use2D false
param *.world.useTorus false

vector 0  scenario.node[0].appl  distance  ETV
vector 1  scenario.node[0].appl  relativeSpeed  ETV
vector 2  scenario.node[0].appl  nodeId  ETV
vector 6  scenario.node[0].appl  acceleration  ETV
vector 7  scenario.node[0].appl  controllerAcceleration  ETV
vector 3  scenario.node[0].appl  speed  ETV
vector 4  scenario.node[0].appl  posx  ETV
vector 5  scenario.node[0].appl  posy  ETV
vector 22  scenario.node[1].appl  distance  ETV
vector 23  scenario.node[1].appl  relativeSpeed  ETV
vector 24  scenario.node[1].appl  nodeId  ETV
vector 28  scenario.node[1].appl  acceleration  ETV
vector 29  scenario.node[1].appl  controllerAcceleration  ETV
vector 25  scenario.node[1].appl  speed  ETV
vector 26  scenario.node[1].appl  posx  ETV
vector 27  scenario.node[1].appl  posy  ETV
vector 44  scenario.node[2].appl  distance  ETV
vector 45  scenario.node[2].appl  relativeSpeed  ETV
vector 46  scenario.node[2].appl  nodeId  ETV
vector 50  scenario.node[2].appl  acceleration  ETV
vector 51  scenario.node[2].appl  controllerAcceleration  ETV
vector 47  scenario.node[2].appl  speed  ETV
vector 48  scenario.node[2].appl  posx  ETV
vector 49  scenario.node[2].appl  posy  ETV
vector 66  scenario.node[3].appl  distance  ETV
vector 67  scenario.node[3].appl  relativeSpeed  ETV
vector 68  scenario.node[3].appl  nodeId  ETV
vector 72  scenario.node[3].appl  acceleration  ETV
vector 73  scenario.node[3].appl  controllerAcceleration  ETV
vector 69  scenario.node[3].appl  speed  ETV
vector 70  scenario.node[3].appl  posx  ETV
vector 71  scenario.node[3].appl  posy  ETV
vector 88  scenario.node[4].appl  distance  ETV
vector 89  scenario.node[4].appl  relativeSpeed  ETV
vector 90  scenario.node[4].appl  nodeId  ETV
vector 94  scenario.node[4].appl  acceleration  ETV
vector 95  scenario.node[4].appl  controllerAcceleration  ETV
vector 91  scenario.node[4].appl  speed  ETV
vector 92  scenario.node[4].appl  posx  ETV
vector 93  scenario.node[4].appl  posy  ETV
vector 110  scenario.node[5].appl  distance  ETV
vector 111  scenario.node[5].appl  relativeSpeed  ETV
vector 112  scenario.node[5].appl  nodeId  ETV
vector 116  scenario.node[5].appl  acceleration  ETV
vector 117  scenario.node[5].appl  controllerAcceleration  ETV
vector 113  scenario.node[5].appl  speed  ETV
vector 114  scenario.node[5].appl  posx  ETV
vector 115  scenario.node[5].appl  posy  ETV
vector 132  scenario.node[6].appl  distance  ETV
vector 133  scenario.node[6].appl  relativeSpeed  ETV
vector 134  scenario.node[6].appl  nodeId  ETV
vector 138  scenario.node[6].appl  acceleration  ETV
vector 139  scenario.node[6].appl  controllerAcceleration  ETV
vector 135  scenario.node[6].appl  speed  ETV
vector 136  scenario.node[6].appl  posx  ETV
vector 137  scenario.node[6].appl  posy  ETV
vector 154  scenario.node[7].appl  distance  ETV
vector 155  scenario.node[7].appl  relativeSpeed  ETV
vector 156  scenario.node[7].appl  nodeId  ETV
vector 160  scenario.node[7].appl  acceleration  ETV
vector 161  scenario.node[7].appl  controllerAcceleration  ETV
vector 157  scenario.node[7].appl  speed  ETV
vector 158  scenario.node[7].appl  posx  ETV
vector 159  scenario.node[7].appl  posy  ETV
vector 80  scenario.node[3].prot  frontDelay  ETV
vector 78  scenario.node[3].prot  frontDelayId  ETV
vector 58  scenario.node[2].prot  frontDelay  ETV
vector 56  scenario.node[2].prot  frontDelayId  ETV
vector 168  scenario.node[7].prot  frontDelay  ETV
vector 166  scenario.node[7].prot  frontDelayId  ETV
vector 35  scenario.node[1].prot  leaderDelay  ETV
vector 33  scenario.node[1].prot  leaderDelayId  ETV
vector 36  scenario.node[1].prot  frontDelay  ETV
vector 34  scenario.node[1].prot  frontDelayId  ETV
vector 57  scenario.node[2].prot  leaderDelay  ETV
vector 55  scenario.node[2].prot  leaderDelayId  ETV
vector 79  scenario.node[3].prot  leaderDelay  ETV
vector 77  scenario.node[3].prot  leaderDelayId  ETV
vector 101  scenario.node[4].prot  leaderDelay  ETV
vector 99  scenario.node[4].prot  leaderDelayId  ETV
vector 123  scenario.node[5].prot  leaderDelay  ETV
vector 121  scenario.node[5].prot  leaderDelayId  ETV
vector 145  scenario.node[6].prot  leaderDelay  ETV
vector 143  scenario.node[6].prot  leaderDelayId  ETV
vector 167  scenario.node[7].prot  leaderDelay  ETV
vector 165  scenario.node[7].prot  leaderDelayId  ETV
vector 124  scenario.node[5].prot  frontDelay  ETV
vector 122  scenario.node[5].prot  frontDelayId  ETV
vector 102  scenario.node[4].prot  frontDelay  ETV
vector 100  scenario.node[4].prot  frontDelayId  ETV
vector 146  scenario.node[6].prot  frontDelay  ETV
vector 144  scenario.node[6].prot  frontDelayId  ETV
vector 8  scenario.node[0].prot  nodeId  ETV
vector 9  scenario.node[0].prot  busyTime  ETV
vector 10  scenario.node[0].prot  collisions  ETV
vector 30  scenario.node[1].prot  nodeId  ETV
vector 31  scenario.node[1].prot  busyTime  ETV
vector 32  scenario.node[1].prot  collisions  ETV
vector 52  scenario.node[2].prot  nodeId  ETV
vector 53  scenario.node[2].prot  busyTime  ETV
vector 54  scenario.node[2].prot  collisions  ETV
vector 74  scenario.node[3].prot  nodeId  ETV
vector 75  scenario.node[3].prot  busyTime  ETV
vector 76  scenario.node[3].prot  collisions  ETV
vector 96  scenario.node[4].prot  nodeId  ETV
vector 97  scenario.node[4].prot  busyTime  ETV
vector 98  scenario.node[4].prot  collisions  ETV
vector 118  scenario.node[5].prot  nodeId  ETV
vector 119  scenario.node[5].prot  busyTime  ETV
vector 120  scenario.node[5].prot  collisions  ETV
vector 140  scenario.node[6].prot  nodeId  ETV
vector 141  scenario.node[6].prot  busyTime  ETV
vector 142  scenario.node[6].prot  collisions  ETV
vector 162  scenario.node[7].prot  nodeId  ETV
vector 163  scenario.node[7].prot  busyTime  ETV
vector 164  scenario.node[7].prot  collisions  ETV
7	11229 9371 232 219964 1.11 40.51 395 -1.5 1.5 -5.6780024056113 641.70678298732
6	20600 12420 232 219964 1.11 40.51 395 -1.4722746795918 1.4513430531451 -10.788126796157 429.54592459954
5	33020 8007 232 219964 1.11 40.51 395 36.55 36.55 14437.25 527681.4875
4	41027 11905 232 219964 1.11 40.51 395 99.773198318881 1416.6790497954 300108.33501519 285376364.60008
3	52932 11916 232 219964 1.11 40.51 395 32.043522766022 35.298048086563 13202.008117847 441546.40169785
1	64848 6427 232 219964 1.11 40.51 395 0 0 0 0
0	71275 6822 232 219964 1.11 40.51 395 -1 -1 -395 395
2	78097 6427 232 219964 1.11 40.51 395 0 0 0 0
10	84524 558 5102 217036 2 40 39 0 0 0 0
9	85082 754 5102 217036 2 40 39 0.022969 0.02625 1.020469 0.026711949961
8	85836 519 5102 217036 2 40 39 0 0 0 0
51	86355 12852 234 219966 1.11 40.51 395 -1.4952754280285 1.497099229686 11.889959179525 454.75523701277
50	99207 12888 234 219966 1.11 40.51 395 -1.4761121252597 1.4494360537391 12.316174623786 317.38047210753
49	112095 8402 234 219966 1.11 40.51 395 36.55 36.55 14437.25 527681.4875
48	120497 12322 234 219966 1.11 40.51 395 81.773198318481 1406.2502230906 293150.06954339 275127064.72129
47	132819 12301 234 219966 1.11 40.51 395 32.037630642422 35.298898402684 13278.535187486 446685.11209868
45	145120 13350 234 219966 1.11 40.51 395 -0.47709016483858 0.039108598996961 -26.787918425893 10.559549091994
44	158470 12281 234 219966 1.11 40.51 395 2.3546295717053 5.073511482403 1892.3064225937 9186.3295652402
46	170751 6822 234 219966 1.11 40.51 395 2 2 790 1580
58	177573 15793 900 220076 1.229657900624 40.529653717337 394 0.099998697423 0.100011851319 39.399994657295 3.9399989368496
57	193366 15760 1038 220214 1.254911260874 40.554841996062 394 0.0999078167 0.100089841908 39.39994257577 3.9399891770688
56	209126 10702 900 220076 1.229657900624 40.529653717337 394 2 2 788 1576
55	219828 10683 1038 220214 1.254911260874 40.554841996062 394 2 2 788 1576
54	230511 558 5104 217038 2 40 39 0 0 0 0
53	231069 793 5104 217038 2 40 39 0.022969 0.02625 1.020469 0.026711949961
52	231862 558 5104 217038 2 40 39 2 2 78 156
73	232420 12834 235 219967 1.11 40.51 395 -1.4890877725994 1.4891493121668 15.873126758234 444.39744072412
72	245254 12860 235 219967 1.11 40.51 395 -1.46348876643 1.436258111837 16.271824992495 313.53100239823
71	258114 8402 235 219967 1.11 40.51 395 36.55 36.55 14437.25 527681.4875
70	266516 12319 235 219967 1.11 40.51 395 72.773198318481 1399.0970238947 289648.0147603 270024608.57125
69	278835 12313 235 219967 1.11 40.51 395 32.047187145112 35.285603803889 13297.141581788 447972.68058944
67	291148 13469 235 219967 1.11 40.51 395 -0.39418068068032 0.020412781438374 -18.7295560482 5.4817743922213
66	304617 12275 235 219967 1.11 40.51 395 3.161098290353 5.0493612979845 1922.4269109788 9408.9433146768
68	316892 6822 235 219967 1.11 40.51 395 3 3 1185 3555
80	323714 15802 832 220008 1.213904870603 40.513900698882 394 0.099998697604 0.100011851271 39.399994668861 3.9399989391619
79	339516 15785 1044 220220 1.254911290894 40.55484201987 394 0.099907816641 0.100089841918 39.399942569558 3.9399891758264
78	355301 10705 832 220008 1.213904870603 40.513900698882 394 3 3 1182 3546
77	366006 10692 1044 220220 1.254911290894 40.55484201987 394 3 3 1182 3546
76	376698 558 5105 217039 2 40 39 0 0 0 0
75	377256 793 5105 217039 2 40 39 0.022968 0.02625 1.020468 0.026711904024
74	378049 558 5105 217039 2 40 39 3 3 117 351
95	378607 12795 236 219968 1.11 40.51 395 -1.482153724041 1.4817587911007 19.043314399768 435.55746624803
94	391402 12828 236 219968 1.11 40.51 395 -1.4527427935754 1.4261913662551 19.387673659612 310.22444936757
93	404230 8402 236 219968 1.11 40.51 395 36.55 36.55 14437.25 527681.4875
92	412632 12308 236 219968 1.11 40.51 395 63.773198318481 1391.3518152574 286126.27746478 264932601.38657
91	424940 12311 236 219968 1.11 40.51 395 32.055906297898 35.286561924975 13309.798448321 448854.80789458
89	437251 13524 236 219968 1.11 40.51 395 -0.31023178726399 0.014563179925339 -12.819584783134 2.7311497106262
88	450775 12295 236 219968 1.11 40.51 395 3.7514250027161 5.0268302668283 1941.9904328439 9570.0085222276
90	463070 6822 236 219968 1.11 40.51 395 4 4 1580 6320
102	469892 16148 1246 219866 1.303561561081 40.50355857097 393 0.099998698124 0.100011851048 39.299995850471 3.9299991754819
101	486040 16196 1050 220226 1.254911320915 40.554842045663 394 0.099907816606 0.100089841921 39.39994256533 3.9399891749808
100	502236 11073 1246 219866 1.303561561081 40.50355857097 393 4 4 1572 6288
99	513309 10711 1050 220226 1.254911320915 40.554842045663 394 4 4 1576 6304
98	524020 558 5106 217040 2 40 39 0 0 0 0
97	524578 793 5106 217040 2 40 39 0.022969 0.02625 1.020469 0.026711949961
96	525371 558 5106 217040 2 40 39 4 4 156 624
117	525929 13193 237 219969 1.11 40.51 395 -1.489667262386 1.491466760912 21.799731743873 448.84391876995
116	539122 13219 237 219969 1.11 40.51 395 -1.447561898987 1.4230601819897 21.718270863946 309.1071255717
115	552341 8797 237 219969 1.11 40.51 395 36.55 36.55 14437.25 527681.4875
114	561138 12698 237 219969 1.11 40.51 395 54.773196411133 1383.2097755675 282593.33097585 259873551.98514
113	573836 12714 237 219969 1.11 40.51 395 32.060601230754 35.504523623866 13318.459027982 449461.97398132
111	586550 13821 237 219969 1.11 40.51 395 -0.23024080331817 0.039951808960105 -8.8544563981445 1.5114663899031
110	600371 12707 237 219969 1.11 40.51 395 4.1466506344727 5.0346852361465 1953.1197005296 9667.6320223437
112	613078 7217 237 219969 1.11 40.51 395 5 5 1975 9875
124	620295 16137 1172 219791 1.26574753106 40.465757546434 393 0.09999870208 0.100011850447 39.300008855956 3.9300017767162
123	636432 16169 1056 220232 1.254911350936 40.554842072791 394 0.099907816585 0.100089841915 39.399942562437 3.9399891744022
122	652601 11077 1172 219791 1.26574753106 40.465757546434 393 5 5 1965 9825
121	663678 11086 1056 220232 1.254911350936 40.554842072791 394 5 5 1970 9850
120	674764 597 5107 217041 2 40 39 0 0 0 0
119	675361 832 5107 217041 2 40 39 0.022968 0.02625 1.020468 0.026711904024
118	676193 597 5107 217041 2 40 39 5 5 195 975
139	676790 13140 238 219970 1.11 40.51 395 -1.4807582973376 1.4812783517611 23.258273907223 439.96167513833
138	689930 13182 238 219970 1.11 40.51 395 -1.4503739007857 1.4264948331451 23.397101897393 312.85144487688
137	703112 8797 238 219970 1.11 40.51 395 36.55 36.55 14437.25 527681.4875
136	711909 12690 238 219970 1.11 40.51 395 45.773196411133 1374.7788018926 279051.59975053 254854760.7573
135	724599 12706 238 219970 1.11 40.51 395 32.055280479413 35.672638091193 13324.208323886 449869.91202388
133	737305 13874 238 219970 1.11 40.51 395 -0.16810811836937 0.022610065418895 -5.9664786124858 0.67153060778504
132	751179 12685 238 219970 1.11 40.51 395 4.4343359642564 5.0142923059555 1961.846211238 9748.1069466485
134	763864 7217 238 219970 1.11 40.51 395 6 6 2370 14220
146	771081 16143 1312 219932 1.305157621123 40.505154626264 393 0.099998697991 0.100011850861 39.299995845723 3.9299991745341
145	787224 16182 1062 220238 1.254911380957 40.554842100891 394 0.09990781657 0.100089841913 39.399942560516 3.939989174018
144	803406 11071 1312 219932 1.305157621123 40.505154626264 393 6 6 2358 14148
143	814477 11105 1062 220238 1.254911380957 40.554842100891 394 6 6 2364 14184
142	825582 597 5108 217042 2 40 39 0 0 0 0
141	826179 832 5108 217042 2 40 39 0.022969 0.02625 1.020469 0.026711949961
140	827011 597 5108 217042 2 40 39 6 6 234 1404
161	827608 13173 239 219971 1.11 40.51 395 -1.4938774147282 1.4938088648604 24.925494602346 455.25247581217
160	840781 13203 239 219971 1.11 40.51 395 -1.4564665523054 1.4312228030676 24.638312848419 315.19393364932
159	853984 8797 239 219971 1.11 40.51 395 36.55 36.55 14437.25 527681.4875
158	862781 12703 239 219971 1.11 40.51 395 36.773196411133 1366.1313952445 275503.13632585 249882263.17276
157	875484 12703 239 219971 1.11 40.51 395 32.050755750905 35.794054596337 13327.777036525 450124.9398988
155	888187 14093 239 219971 1.11 40.51 395 -0.12168578826829 0.011006410312881 -3.8026836573894 0.30278344421203
154	902280 12687 239 219971 1.11 40.51 395 4.6498349781257 5.0256964368233 1968.5347989275 9811.9198914526
156	914967 7217 239 219971 1.11 40.51 395 7 7 2765 19355
168	922184 16174 975 220151 1.254433050728 40.554428851105 394 0.099998697014 0.100011851372 39.399994640959 3.9399989335821
167	938358 16185 1068 220244 1.254911410977 40.55484212972 394 0.099907816563 0.10008984192 39.399942559325 3.9399891737798
166	954543 11102 975 220151 1.254433050728 40.554428851105 394 7 7 2758 19306
165	965645 11099 1068 220244 1.254911410977 40.55484212972 394 7 7 2758 19306
164	976744 597 5109 217043 2 40 39 0 0 0 0
163	977341 832 5109 217043 2 40 39 0.022969 0.02625 1.020469 0.026711949961
162	978173 597 5109 217043 2 40 39 7 7 273 1911
22	978770 12326 233 220312 1.11 40.56 396 0 7.1990676540665 1907.4895906009 9624.0266320151
23	991096 13272 233 220312 1.11 40.56 396 -2.1678873629698 1.2662728799794 -51.541290659941 149.40076118102
24	1004368 6840 233 220312 1.11 40.56 396 1 1 396 396
25	1011208 12335 233 220312 1.11 40.56 396 32.03076713502 35.304159893558 13285.918800535 446014.88644122
26	1023543 12338 233 220312 1.11 40.56 396 90.773198318481 1414.3002779629 298036.14201096 282211483.61048
27	1035881 8424 233 220312 1.11 40.56 396 36.55 36.55 14473.8 529017.39
28	1044305 12928 233 220312 1.11 40.56 396 -1.4840815548887 1.4595456971342 7.5450799286898 318.13983664239
29	1057233 12918 233 220312 1.11 40.56 396 -1.5129716532521 1.5129648401275 7.1311354592218 464.51212968483
30	1070151 558 5103 217037 2 40 39 1 1 39 39
31	1070709 793 5103 217037 2 40 39 0.022969 0.02625 1.020469 0.026711949961
32	1071502 558 5103 217037 2 40 39 0 0 0 0
33	1072060 10708 1032 220208 1.254911230853 40.554841974959 394 1 1 394 394
34	1082768 10708 1032 220208 1.254911230853 40.554841974959 394 1 1 394 394
35	1093476 15787 1032 220208 1.254911230853 40.554841974959 394 0.099907816796 0.100089841893 39.399942584688 3.9399891788524
36	1109263 15787 1032 220208 1.254911230853 40.554841974959 394 0.099907816796 0.100089841893 39.399942584688 3.9399891788524
