file 1686287 1501510174                                         
version 2
run SinusoidalJammingAttack-86-20170731-16:09:04-54872
attr CACCSpacing 20
attr attackAcc -30
attr attackPos 7
attr attackSpeed 150
attr attackStart 30
attr attacker 1
attr beaconInterval 0.1
attr configname SinusoidalJammingAttack
attr controller 1
attr datetime 20170731-16:09:04
attr experiment SinusoidalJammingAttack
attr fakeAcc "(1 == 4)"
attr fakePos "(1 == 2)"
attr fakeSpeed "(1 == 3)"
attr inifile omnetpp_86.ini
attr iterationvars "$leaderSpeed=120, $controller=1, $CACCSpacing=20, $sController=\"CACC\", $attacker=1, $attackStart=30, $attackSpeed=150, $attackPos=7, $attackAcc=-30, $0=20, $1=0, $nCars=8, $platoonSize=8, $nLanes=1, $beaconInterval=0.1, $priority=2, $packetSize=200, $ploegH=0.5, $leaderHeadway=1.2, $fakeSpeed=(1 == 3), $fakeAcc=(1 == 4), $fakePos=(1 == 2)"
attr iterationvarsf leaderSpeed=120,controller=1,CACCSpacing=20,sController=CACC,attacker=1,attackStart=30,attackSpeed=150,attackPos=7,attackAcc=-30,20,0,nCars=8,platoonSize=8,nLanes=1,beaconInterval=0.1,priority=2,packetSize=200,ploegH=0.5,leaderHeadway=1.2,fakeSpeed=(1_==_3),fakeAcc=(1_==_4),fakePos=(1_==_2)-
attr leaderHeadway 1.2
attr leaderSpeed 120
attr measurement "$leaderSpeed=120, $controller=1, $CACCSpacing=20, $sController=\"CACC\", $attacker=1, $attackStart=30, $attackSpeed=150, $attackPos=7, $attackAcc=-30, $0=20, $1=0, $nCars=8, $platoonSize=8, $nLanes=1, $beaconInterval=0.1, $priority=2, $packetSize=200, $ploegH=0.5, $leaderHeadway=1.2, $fakeSpeed=(1 == 3), $fakeAcc=(1 == 4), $fakePos=(1 == 2)"
attr nCars 8
attr nLanes 1
attr network scenario
attr packetSize 200
attr platoonSize 8
attr ploegH 0.5
attr priority 2
attr processid 54872
attr repetition 1
attr replication #1
attr resultdir results
attr runnumber 86
attr sController "\"CACC\""
attr seedset 1
param **.coreDebug false
param **.debug false
param **.headway 0.1s
param **.numberOfCars 8
param **.numberOfCarsPerPlatoon 8
param **.numberOfLanes 1
param **.numericController 1
param **.traffic.nCars 8
param **.traffic.nLanes 1
param **.traffic.platoonInsertDistance 20m
param **.traffic.platoonInsertHeadway 0s
param **.traffic.platoonInsertSpeed 120kmph
param **.traffic.platoonInsertTime "1 s"
param **.traffic.platoonLeaderHeadway 1.2s
param **.traffic.platoonSize 8
param **.traffic.platooningVType "\"vtypeauto\""
param **.traffic_type "\"PlatoonsTrafficManager\""
param *.**.nic.mac1609_4.bitrate 6Mbps
param *.**.nic.mac1609_4.txPower 100mW
param *.**.nic.mac1609_4.useServiceChannel false
param *.**.nic.phy80211p.analogueModels "xmldoc(\"config.xml\")"
param *.**.nic.phy80211p.decider "xmldoc(\"config.xml\")"
param *.**.nic.phy80211p.maxTXPower 100mW
param *.**.nic.phy80211p.sensitivity -94dBm
param *.**.nic.phy80211p.thermalNoise -95dBm
param *.**.nic.phy80211p.usePropagationDelay true
param *.**.nic.phy80211p.useThermalNoise true
param *.annotations.draw false
param *.connectionManager.alpha 2.0
param *.connectionManager.carrierFrequency "5.890e9 Hz"
param *.connectionManager.pMax 100mW
param *.connectionManager.sat -94dBm
param *.connectionManager.sendDirect true
param *.manager.autoShutdown true
param *.manager.commandLine "\"sumo --remote-port $port --seed $seed --configuration-file $configFile\""
param *.manager.configFile "\"./sumocfg/freeway.sumo.cfg\""
param *.manager.host "\"localhost\""
param *.manager.margin 25
param *.manager.moduleDisplayString "\"\""
param *.manager.moduleName "\"node\""
param *.manager.moduleType "\"Car\""
param *.manager.updateInterval 0.01s
param *.node[*].appl.attackStart 30s
param *.node[*].appl.attackerType 1
param *.node[*].appl.simulationDuration "60 s"
param *.node[*].appl_type "\"SimplePlatooningApp\""
param *.node[*].helper.nCars 8
param *.node[*].helper.nLanes 1
param *.node[*].helper.platoonSize 8
param *.node[*].helper_type "\"PositionHelper\""
param *.node[*].mobility.x 0
param *.node[*].mobility.y 0
param *.node[*].mobility.z 1.895
param *.node[*].prot.attackStart 30s
param *.node[*].prot.attackerType 1
param *.node[*].prot.attackingNode 3
param *.node[*].prot.beaconingInterval 0.1s
param *.node[*].prot.fakeAcc "(1 == 4)"
param *.node[*].prot.fakePos "(1 == 2)"
param *.node[*].prot.fakeSpeed "(1 == 3)"
param *.node[*].prot.maliciousAcc "-30 mpss"
param *.node[*].prot.maliciousSpeed 150kmph
param *.node[*].prot.packetSize 200
param *.node[*].prot.priority 2
param *.node[*].prot.shiftX "7 m"
param *.node[*].prot.useControllerAcceleration true
param *.node[*].protocol_type "\"SimplePlatooningBeaconing\""
param *.node[*].scenario.accHeadway 0.1s
param *.node[*].scenario.caccC1 0.5
param *.node[*].scenario.caccOmegaN "0.2 Hz"
param *.node[*].scenario.caccSpacing 20m
param *.node[*].scenario.caccXi 1
param *.node[*].scenario.controller "\"CACC\""
param *.node[*].scenario.engineTau "0.5 s"
param *.node[*].scenario.leaderHeadway 1.2s
param *.node[*].scenario.leaderOscillationFrequency "0.2 Hz"
param *.node[*].scenario.leaderSpeed 120kmph
param *.node[*].scenario.oscillationAmplitude "10 kmph"
param *.node[*].scenario.ploegH 0.5s
param *.node[*].scenario.ploegKd 0.7
param *.node[*].scenario.ploegKp 0.2
param *.node[*].scenario.startOscillating "5 s"
param *.node[*].scenario.useRealisticEngine false
param *.node[*].scenario_type "\"SinusoidalScenario\""
param *.node[*].unicast.packetLossRate 0
param *.obstacles.debug false
param *.playgroundSizeX 65000m
param *.playgroundSizeY 25000m
param *.playgroundSizeZ 50m
param *.world.use2D false
param *.world.useTorus false

vector 0  scenario.node[0].appl  distance  ETV
vector 1  scenario.node[0].appl  relativeSpeed  ETV
vector 2  scenario.node[0].appl  nodeId  ETV
vector 6  scenario.node[0].appl  acceleration  ETV
vector 7  scenario.node[0].appl  controllerAcceleration  ETV
vector 3  scenario.node[0].appl  speed  ETV
vector 4  scenario.node[0].appl  posx  ETV
vector 5  scenario.node[0].appl  posy  ETV
vector 22  scenario.node[1].appl  distance  ETV
vector 23  scenario.node[1].appl  relativeSpeed  ETV
vector 24  scenario.node[1].appl  nodeId  ETV
vector 28  scenario.node[1].appl  acceleration  ETV
vector 29  scenario.node[1].appl  controllerAcceleration  ETV
vector 25  scenario.node[1].appl  speed  ETV
vector 26  scenario.node[1].appl  posx  ETV
vector 27  scenario.node[1].appl  posy  ETV
vector 44  scenario.node[2].appl  distance  ETV
vector 45  scenario.node[2].appl  relativeSpeed  ETV
vector 46  scenario.node[2].appl  nodeId  ETV
vector 50  scenario.node[2].appl  acceleration  ETV
vector 51  scenario.node[2].appl  controllerAcceleration  ETV
vector 47  scenario.node[2].appl  speed  ETV
vector 48  scenario.node[2].appl  posx  ETV
vector 49  scenario.node[2].appl  posy  ETV
vector 66  scenario.node[3].appl  distance  ETV
vector 67  scenario.node[3].appl  relativeSpeed  ETV
vector 68  scenario.node[3].appl  nodeId  ETV
vector 72  scenario.node[3].appl  acceleration  ETV
vector 73  scenario.node[3].appl  controllerAcceleration  ETV
vector 69  scenario.node[3].appl  speed  ETV
vector 70  scenario.node[3].appl  posx  ETV
vector 71  scenario.node[3].appl  posy  ETV
vector 88  scenario.node[4].appl  distance  ETV
vector 89  scenario.node[4].appl  relativeSpeed  ETV
vector 90  scenario.node[4].appl  nodeId  ETV
vector 94  scenario.node[4].appl  acceleration  ETV
vector 95  scenario.node[4].appl  controllerAcceleration  ETV
vector 91  scenario.node[4].appl  speed  ETV
vector 92  scenario.node[4].appl  posx  ETV
vector 93  scenario.node[4].appl  posy  ETV
vector 110  scenario.node[5].appl  distance  ETV
vector 111  scenario.node[5].appl  relativeSpeed  ETV
vector 112  scenario.node[5].appl  nodeId  ETV
vector 116  scenario.node[5].appl  acceleration  ETV
vector 117  scenario.node[5].appl  controllerAcceleration  ETV
vector 113  scenario.node[5].appl  speed  ETV
vector 114  scenario.node[5].appl  posx  ETV
vector 115  scenario.node[5].appl  posy  ETV
vector 132  scenario.node[6].appl  distance  ETV
vector 133  scenario.node[6].appl  relativeSpeed  ETV
vector 134  scenario.node[6].appl  nodeId  ETV
vector 138  scenario.node[6].appl  acceleration  ETV
vector 139  scenario.node[6].appl  controllerAcceleration  ETV
vector 135  scenario.node[6].appl  speed  ETV
vector 136  scenario.node[6].appl  posx  ETV
vector 137  scenario.node[6].appl  posy  ETV
vector 154  scenario.node[7].appl  distance  ETV
vector 155  scenario.node[7].appl  relativeSpeed  ETV
vector 156  scenario.node[7].appl  nodeId  ETV
vector 160  scenario.node[7].appl  acceleration  ETV
vector 161  scenario.node[7].appl  controllerAcceleration  ETV
vector 157  scenario.node[7].appl  speed  ETV
vector 158  scenario.node[7].appl  posx  ETV
vector 159  scenario.node[7].appl  posy  ETV
vector 58  scenario.node[2].prot  frontDelay  ETV
vector 56  scenario.node[2].prot  frontDelayId  ETV
vector 102  scenario.node[4].prot  frontDelay  ETV
vector 100  scenario.node[4].prot  frontDelayId  ETV
vector 146  scenario.node[6].prot  frontDelay  ETV
vector 144  scenario.node[6].prot  frontDelayId  ETV
vector 168  scenario.node[7].prot  frontDelay  ETV
vector 166  scenario.node[7].prot  frontDelayId  ETV
vector 124  scenario.node[5].prot  frontDelay  ETV
vector 122  scenario.node[5].prot  frontDelayId  ETV
vector 35  scenario.node[1].prot  leaderDelay  ETV
vector 33  scenario.node[1].prot  leaderDelayId  ETV
vector 36  scenario.node[1].prot  frontDelay  ETV
vector 34  scenario.node[1].prot  frontDelayId  ETV
vector 57  scenario.node[2].prot  leaderDelay  ETV
vector 55  scenario.node[2].prot  leaderDelayId  ETV
vector 79  scenario.node[3].prot  leaderDelay  ETV
vector 77  scenario.node[3].prot  leaderDelayId  ETV
vector 101  scenario.node[4].prot  leaderDelay  ETV
vector 99  scenario.node[4].prot  leaderDelayId  ETV
vector 123  scenario.node[5].prot  leaderDelay  ETV
vector 121  scenario.node[5].prot  leaderDelayId  ETV
vector 145  scenario.node[6].prot  leaderDelay  ETV
vector 143  scenario.node[6].prot  leaderDelayId  ETV
vector 167  scenario.node[7].prot  leaderDelay  ETV
vector 165  scenario.node[7].prot  leaderDelayId  ETV
vector 80  scenario.node[3].prot  frontDelay  ETV
vector 78  scenario.node[3].prot  frontDelayId  ETV
vector 8  scenario.node[0].prot  nodeId  ETV
vector 9  scenario.node[0].prot  busyTime  ETV
vector 10  scenario.node[0].prot  collisions  ETV
vector 30  scenario.node[1].prot  nodeId  ETV
vector 31  scenario.node[1].prot  busyTime  ETV
vector 32  scenario.node[1].prot  collisions  ETV
vector 52  scenario.node[2].prot  nodeId  ETV
vector 53  scenario.node[2].prot  busyTime  ETV
vector 54  scenario.node[2].prot  collisions  ETV
vector 74  scenario.node[3].prot  nodeId  ETV
vector 75  scenario.node[3].prot  busyTime  ETV
vector 76  scenario.node[3].prot  collisions  ETV
vector 96  scenario.node[4].prot  nodeId  ETV
vector 97  scenario.node[4].prot  busyTime  ETV
vector 98  scenario.node[4].prot  collisions  ETV
vector 118  scenario.node[5].prot  nodeId  ETV
vector 119  scenario.node[5].prot  busyTime  ETV
vector 120  scenario.node[5].prot  collisions  ETV
vector 140  scenario.node[6].prot  nodeId  ETV
vector 141  scenario.node[6].prot  busyTime  ETV
vector 142  scenario.node[6].prot  collisions  ETV
vector 162  scenario.node[7].prot  nodeId  ETV
vector 163  scenario.node[7].prot  busyTime  ETV
vector 164  scenario.node[7].prot  collisions  ETV
7	11238 13859 232 328174 1.11 59.91 589 -1.5 1.5 -14.445953361693 993.24092335941
6	25097 18579 232 328174 1.11 59.91 589 -1.4722746795918 1.4513434175775 -12.507247963452 675.29835166926
5	43676 12081 232 328174 1.11 59.91 589 36.55 36.55 21527.95 786846.5725
4	55757 17906 232 328174 1.11 59.91 589 203.93872566263 2168.2548559825 699430.77833594 1020247149.987
3	73663 17913 232 328174 1.11 59.91 589 32.043521415285 35.298048086563 19676.061011579 657739.0394163
1	91576 9725 232 328174 1.11 59.91 589 0 0 0 0
0	101301 10314 232 328174 1.11 59.91 589 -1 -1 -589 589
2	111615 9725 232 328174 1.11 59.91 589 0 0 0 0
10	121340 858 5168 328662 2 60 59 0 0 0 0
9	122198 1154 5168 328662 2 60 59 0.023297 0.02625 1.545797 0.040508375209
8	123352 799 5168 328662 2 60 59 0 0 0 0
29	124151 18710 233 328175 1.11 59.91 589 -1.5466261382566 1.54276192796 -0.46831966386387 469.37100530134
28	142861 19645 233 328175 1.11 59.91 589 -1.4899163862623 1.4506836310161 0.7490444760613 318.66630695195
27	162506 12670 233 328175 1.11 59.91 589 36.55 36.55 21527.95 786846.5725
26	175176 18497 233 328175 1.11 59.91 589 179.93872566223 2153.8342973659 686922.81748576 993119819.042
25	193673 18481 233 328175 1.11 59.91 589 32.032530439049 35.2878795323 19772.314876367 664022.05329944
23	212154 19544 233 328175 1.11 59.91 589 -2.2091920359622 1.2526137166622 -96.128792308798 320.91324380608
22	231698 18488 233 328175 1.11 59.91 589 9.3066055131997 22.418941657559 10153.885927474 184917.84776449
24	250186 10314 233 328175 1.11 59.91 589 1 1 589 589
36	260500 23700 1238 328624 1.297803401661 59.997808873274 588 0.099998900931 0.10001229367 58.800004752499 5.8800009563472
35	284200 23700 1238 328624 1.297803401661 59.997808873274 588 0.099998900931 0.10001229367 58.800004752499 5.8800009563472
34	307900 16114 1238 328624 1.297803401661 59.997808873274 588 1 1 588 588
33	324014 16114 1238 328624 1.297803401661 59.997808873274 588 1 1 588 588
32	340128 858 5169 328663 2 60 59 0 0 0 0
31	340986 1213 5169 328663 2 60 59 0.023297 0.02625 1.545797 0.040508375209
30	342199 858 5169 328663 2 60 59 1 1 59 59
51	343057 19516 234 328176 1.11 59.91 589 -1.5013789091423 1.5 1.6695038018101 454.84008259363
50	362573 19638 234 328176 1.11 59.91 589 -1.4795465244234 1.4451253710995 1.3037463079428 318.05320836237
49	382211 12670 234 328176 1.11 59.91 589 36.55 36.55 21527.95 786846.5725
48	394881 18499 234 328176 1.11 59.91 589 155.93872566223 2137.5860764607 674014.8403611 964995132.68923
47	413380 18502 234 328176 1.11 59.91 589 32.036076308684 35.277296962454 19849.852115458 669302.32963441
45	431882 20122 234 328176 1.11 59.91 589 -0.49022152223298 0.013626155299463 -77.544729534924 27.922751000752
44	452004 18461 234 328176 1.11 59.91 589 12.249366288663 20.082651895225 10553.527869443 194025.99594496
46	470465 10314 234 328176 1.11 59.91 589 2 2 1178 2356
58	480779 23694 832 328218 1.212436360941 59.912442134943 588 0.099998903919 0.100012294605 58.800005054888 5.8800010168231
57	504473 23706 1244 328630 1.297803481717 59.997808927457 588 0.099998900912 0.100012293647 58.800004726626 5.8800009511726
56	528179 16108 832 328218 1.212436360941 59.912442134943 588 2 2 1176 2352
55	544287 16125 1244 328630 1.297803481717 59.997808927457 588 2 2 1176 2352
54	560412 858 5170 328664 2 60 59 0 0 0 0
53	561270 1213 5170 328664 2 60 59 0.023296 0.02625 1.545796 0.040508328616
52	562483 858 5170 328664 2 60 59 2 2 118 236
73	563341 19528 235 328177 1.11 59.91 589 -1.4907242808754 1.4960519232638 2.3622970905845 447.5153128636
72	582869 19555 235 328177 1.11 59.91 589 -1.4676550409241 1.4431325484544 2.3008157033431 317.36758661514
71	602424 12670 235 328177 1.11 59.91 589 36.55 36.55 21527.95 786846.5725
70	615094 18482 235 328177 1.11 59.91 589 131.93872566223 2120.9813758469 660955.50151567 936902954.23378
69	633576 18491 235 328177 1.11 59.91 589 32.038475659694 35.268860742896 19923.840517549 674377.28064999
67	652067 20074 235 328177 1.11 59.91 589 -0.43377530817117 0.014939202841234 -74.001439553961 23.515708138795
66	672141 18453 235 328177 1.11 59.91 589 12.606734658168 20.04250348122 10704.818613465 198489.92566778
68	690594 10314 235 328177 1.11 59.91 589 3 3 1767 5301
80	700908 23700 1312 328707 1.307225561772 60.007217982814 588 0.099998900878 0.100012294757 58.799991701928 5.8799983460878
79	724608 23685 1250 328636 1.297803561772 59.997808982818 588 0.099998900879 0.100012293641 58.800004701932 5.8800009462338
78	748293 16123 1312 328707 1.307225561772 60.007217982814 588 3 3 1764 5292
77	764416 16111 1250 328636 1.297803561772 59.997808982818 588 3 3 1764 5292
76	780527 858 5171 328665 2 60 59 0 0 0 0
75	781385 1213 5171 328665 2 60 59 0.023297 0.02625 1.545797 0.040508375209
74	782598 858 5171 328665 2 60 59 3 3 177 531
95	783456 19503 236 328178 1.11 59.91 589 -1.4989614374635 1.5003026714761 3.7374061312959 457.50657332217
94	802959 19555 236 328178 1.11 59.91 589 -1.4660391951104 1.4462525366966 3.7372749307075 319.41118146902
93	822514 12670 236 328178 1.11 59.91 589 36.55 36.55 21527.95 786846.5725
92	835184 18476 236 328178 1.11 59.91 589 107.93872566223 2103.9167167649 647729.44145856 908835776.06528
91	853660 18494 236 328178 1.11 59.91 589 32.03593620674 35.343729806287 19993.244305305 679169.5661882
89	872154 20100 236 328178 1.11 59.91 589 -0.37593092385633 0.014072255298373 -69.426795913918 20.279233573625
88	892254 18472 236 328178 1.11 59.91 589 13.067549259507 20.006724633566 10871.448132871 203768.20680981
90	910726 10314 236 328178 1.11 59.91 589 4 4 2356 9424
102	921040 24290 902 328288 1.235040521052 59.935046247243 588 0.099998903835 0.10001229459 58.800005007077 5.8800010072609
101	945330 24272 1256 328642 1.297803641828 59.997809039701 588 0.09999890083 0.100012293636 58.800004678759 5.8800009415992
100	969602 16703 902 328288 1.235040521052 59.935046247243 588 4 4 2352 9408
99	986305 16113 1256 328642 1.297803641828 59.997809039701 588 4 4 2352 9408
98	1002418 858 5172 328666 2 60 59 0 0 0 0
97	1003276 1213 5172 328666 2 60 59 0.023297 0.02625 1.545797 0.040508375209
96	1004489 858 5172 328666 2 60 59 4 4 236 944
117	1005347 19949 237 328179 1.11 59.91 589 -1.5271094748652 1.525553204654 5.2899750357788 471.55460646829
116	1025296 20105 237 328179 1.11 59.91 589 -1.4653751946931 1.4466599061294 5.5442270907314 320.59953073112
115	1045401 13259 237 328179 1.11 59.91 589 36.55 36.55 21527.95 786846.5725
114	1058660 19078 237 328179 1.11 59.91 589 83.938725662231 2086.321174885 634354.1541875 880857352.45259
113	1077738 19088 237 328179 1.11 59.91 589 32.034868506439 35.568531278407 20057.352349835 683622.34822297
111	1096826 20603 237 328179 1.11 59.91 589 -0.34274115808027 0.019669736146312 -64.145417279196 17.794986181496
110	1117429 19060 237 328179 1.11 59.91 589 13.599172193973 20.0447671682 11020.569431947 208593.25595306
112	1136489 10903 237 328179 1.11 59.91 589 5 5 2945 14725
124	1147392 24296 1178 328564 1.297390081439 59.997382669995 588 0.099998901851 0.100012294991 58.799991869442 5.8799983795906
123	1171688 24288 1262 328648 1.297803721883 59.997809098345 588 0.09999890077 0.100012293639 58.800004657348 5.880000937317
122	1195976 16712 1178 328564 1.297390081439 59.997382669995 588 5 5 2940 14700
121	1212688 16704 1262 328648 1.297803721883 59.997809098345 588 5 5 2940 14700
120	1229392 917 5173 328667 2 60 59 0 0 0 0
119	1230309 1272 5173 328667 2 60 59 0.023297 0.02625 1.545797 0.040508375209
118	1231581 917 5173 328667 2 60 59 5 5 295 1475
139	1232498 20050 238 328180 1.11 59.91 589 -1.4994812221703 1.5010910305918 7.4573976577352 456.6696215576
138	1252548 20082 238 328180 1.11 59.91 589 -1.4608902135826 1.4424475003096 7.6626649855278 318.99610006335
137	1272630 13259 238 328180 1.11 59.91 589 36.55 36.55 21527.95 786846.5725
136	1285889 19083 238 328180 1.11 59.91 589 59.93872756958 2068.1301940064 620851.60305429 853045408.90617
135	1304972 19071 238 328180 1.11 59.91 589 32.039347777534 35.748141662631 20115.516726659 687681.82652809
133	1324043 20595 238 328180 1.11 59.91 589 -0.31377322886404 0.021050547991663 -58.219819094335 15.081395650518
132	1344638 19081 238 328180 1.11 59.91 589 14.195229986087 20.006916450641 11147.714420746 212764.92112896
134	1363719 10903 238 328180 1.11 59.91 589 6 6 3534 21204
146	1374622 24290 970 328356 1.248713681163 59.94870636658 588 0.099998902199 0.100012295237 58.799991966303 5.8799983989631
145	1398912 24283 1268 328654 1.297803801938 59.997809158967 588 0.099998900699 0.100012293636 58.800004637915 5.8800009334304
144	1423195 16717 970 328356 1.248713681163 59.94870636658 588 6 6 3528 21168
143	1439912 16698 1268 328654 1.297803801938 59.997809158967 588 6 6 3528 21168
142	1456610 917 5174 328668 2 60 59 0 0 0 0
141	1457527 1272 5174 328668 2 60 59 0.023297 0.02625 1.545797 0.040508375209
140	1458799 917 5174 328668 2 60 59 6 6 354 2124
161	1459716 19351 239 328181 1.11 59.91 589 -1.5084785507466 1.5101632589192 9.4874440427599 463.30768950268
160	1479067 20104 239 328181 1.11 59.91 589 -1.4625053121662 1.4442535707133 10.001490168698 320.37998313574
159	1499171 13259 239 328181 1.11 59.91 589 36.55 36.55 21527.95 786846.5725
158	1512430 19068 239 328181 1.11 59.91 589 35.938727092743 2049.3023063804 607230.57139542 825450821.08862
157	1531498 19083 239 328181 1.11 59.91 589 32.037848960925 35.894827867207 20167.319965877 691318.65643705
155	1550581 20674 239 328181 1.11 59.91 589 -0.28998319321752 0.022636842417498 -51.879865868406 12.565299909276
154	1571255 19080 239 328181 1.11 59.91 589 14.832586159057 20.011309524136 11266.067723659 216781.25396012
156	1590335 10903 239 328181 1.11 59.91 589 7 7 4123 28861
168	1601238 24267 1040 328426 1.263894761218 59.963887429344 588 0.099998902121 0.100012295003 58.799991949012 5.8799983955046
167	1625505 24277 1274 328660 1.297803881994 59.997809221708 588 0.099998900621 0.100012293634 58.8000046206 5.8800009299674
166	1649782 16701 1040 328426 1.263894761218 59.963887429344 588 7 7 4116 28812
165	1666483 16698 1274 328660 1.297803881994 59.997809221708 588 7 7 4116 28812
164	1683181 917 5175 328669 2 60 59 0 0 0 0
163	1684098 1272 5175 328669 2 60 59 0.023297 0.02625 1.545797 0.040508375209
162	1685370 917 5175 328669 2 60 59 7 7 413 2891
