file 1687703 1501509366                                         
version 2
run SinusoidalJammingAttack-37-20170731-15:55:36-71531
attr CACCSpacing 20
attr attackAcc -30
attr attackPos 7
attr attackSpeed 150
attr attackStart 30
attr attacker 1
attr beaconInterval 0.1
attr configname SinusoidalJammingAttack
attr controller 1
attr datetime 20170731-15:55:36
attr experiment SinusoidalJammingAttack
attr fakeAcc "(1 == 4)"
attr fakePos "(1 == 2)"
attr fakeSpeed "(1 == 3)"
attr inifile omnetpp_37.ini
attr iterationvars "$leaderSpeed=80, $controller=1, $CACCSpacing=20, $sController=\"CACC\", $attacker=1, $attackStart=30, $attackSpeed=150, $attackPos=7, $attackAcc=-30, $0=20, $1=0, $nCars=8, $platoonSize=8, $nLanes=1, $beaconInterval=0.1, $priority=2, $packetSize=200, $ploegH=0.5, $leaderHeadway=1.2, $fakeSpeed=(1 == 3), $fakeAcc=(1 == 4), $fakePos=(1 == 2)"
attr iterationvarsf leaderSpeed=80,controller=1,CACCSpacing=20,sController=CACC,attacker=1,attackStart=30,attackSpeed=150,attackPos=7,attackAcc=-30,20,0,nCars=8,platoonSize=8,nLanes=1,beaconInterval=0.1,priority=2,packetSize=200,ploegH=0.5,leaderHeadway=1.2,fakeSpeed=(1_==_3),fakeAcc=(1_==_4),fakePos=(1_==_2)-
attr leaderHeadway 1.2
attr leaderSpeed 80
attr measurement "$leaderSpeed=80, $controller=1, $CACCSpacing=20, $sController=\"CACC\", $attacker=1, $attackStart=30, $attackSpeed=150, $attackPos=7, $attackAcc=-30, $0=20, $1=0, $nCars=8, $platoonSize=8, $nLanes=1, $beaconInterval=0.1, $priority=2, $packetSize=200, $ploegH=0.5, $leaderHeadway=1.2, $fakeSpeed=(1 == 3), $fakeAcc=(1 == 4), $fakePos=(1 == 2)"
attr nCars 8
attr nLanes 1
attr network scenario
attr packetSize 200
attr platoonSize 8
attr ploegH 0.5
attr priority 2
attr processid 71531
attr repetition 2
attr replication #2
attr resultdir results
attr runnumber 37
attr sController "\"CACC\""
attr seedset 2
param **.coreDebug false
param **.debug false
param **.headway 0.1s
param **.numberOfCars 8
param **.numberOfCarsPerPlatoon 8
param **.numberOfLanes 1
param **.numericController 1
param **.traffic.nCars 8
param **.traffic.nLanes 1
param **.traffic.platoonInsertDistance 20m
param **.traffic.platoonInsertHeadway 0s
param **.traffic.platoonInsertSpeed 80kmph
param **.traffic.platoonInsertTime "1 s"
param **.traffic.platoonLeaderHeadway 1.2s
param **.traffic.platoonSize 8
param **.traffic.platooningVType "\"vtypeauto\""
param **.traffic_type "\"PlatoonsTrafficManager\""
param *.**.nic.mac1609_4.bitrate 6Mbps
param *.**.nic.mac1609_4.txPower 100mW
param *.**.nic.mac1609_4.useServiceChannel false
param *.**.nic.phy80211p.analogueModels "xmldoc(\"config.xml\")"
param *.**.nic.phy80211p.decider "xmldoc(\"config.xml\")"
param *.**.nic.phy80211p.maxTXPower 100mW
param *.**.nic.phy80211p.sensitivity -94dBm
param *.**.nic.phy80211p.thermalNoise -95dBm
param *.**.nic.phy80211p.usePropagationDelay true
param *.**.nic.phy80211p.useThermalNoise true
param *.annotations.draw false
param *.connectionManager.alpha 2.0
param *.connectionManager.carrierFrequency "5.890e9 Hz"
param *.connectionManager.pMax 100mW
param *.connectionManager.sat -94dBm
param *.connectionManager.sendDirect true
param *.manager.autoShutdown true
param *.manager.commandLine "\"sumo --remote-port $port --seed $seed --configuration-file $configFile\""
param *.manager.configFile "\"./sumocfg/freeway.sumo.cfg\""
param *.manager.host "\"localhost\""
param *.manager.margin 25
param *.manager.moduleDisplayString "\"\""
param *.manager.moduleName "\"node\""
param *.manager.moduleType "\"Car\""
param *.manager.updateInterval 0.01s
param *.node[*].appl.attackStart 30s
param *.node[*].appl.attackerType 1
param *.node[*].appl.simulationDuration "60 s"
param *.node[*].appl_type "\"SimplePlatooningApp\""
param *.node[*].helper.nCars 8
param *.node[*].helper.nLanes 1
param *.node[*].helper.platoonSize 8
param *.node[*].helper_type "\"PositionHelper\""
param *.node[*].mobility.x 0
param *.node[*].mobility.y 0
param *.node[*].mobility.z 1.895
param *.node[*].prot.attackStart 30s
param *.node[*].prot.attackerType 1
param *.node[*].prot.attackingNode 3
param *.node[*].prot.beaconingInterval 0.1s
param *.node[*].prot.fakeAcc "(1 == 4)"
param *.node[*].prot.fakePos "(1 == 2)"
param *.node[*].prot.fakeSpeed "(1 == 3)"
param *.node[*].prot.maliciousAcc "-30 mpss"
param *.node[*].prot.maliciousSpeed 150kmph
param *.node[*].prot.packetSize 200
param *.node[*].prot.priority 2
param *.node[*].prot.shiftX "7 m"
param *.node[*].prot.useControllerAcceleration true
param *.node[*].protocol_type "\"SimplePlatooningBeaconing\""
param *.node[*].scenario.accHeadway 0.1s
param *.node[*].scenario.caccC1 0.5
param *.node[*].scenario.caccOmegaN "0.2 Hz"
param *.node[*].scenario.caccSpacing 20m
param *.node[*].scenario.caccXi 1
param *.node[*].scenario.controller "\"CACC\""
param *.node[*].scenario.engineTau "0.5 s"
param *.node[*].scenario.leaderHeadway 1.2s
param *.node[*].scenario.leaderOscillationFrequency "0.2 Hz"
param *.node[*].scenario.leaderSpeed 80kmph
param *.node[*].scenario.oscillationAmplitude "10 kmph"
param *.node[*].scenario.ploegH 0.5s
param *.node[*].scenario.ploegKd 0.7
param *.node[*].scenario.ploegKp 0.2
param *.node[*].scenario.startOscillating "5 s"
param *.node[*].scenario.useRealisticEngine false
param *.node[*].scenario_type "\"SinusoidalScenario\""
param *.node[*].unicast.packetLossRate 0
param *.obstacles.debug false
param *.playgroundSizeX 65000m
param *.playgroundSizeY 25000m
param *.playgroundSizeZ 50m
param *.world.use2D false
param *.world.useTorus false

vector 0  scenario.node[0].appl  distance  ETV
vector 1  scenario.node[0].appl  relativeSpeed  ETV
vector 2  scenario.node[0].appl  nodeId  ETV
vector 6  scenario.node[0].appl  acceleration  ETV
vector 7  scenario.node[0].appl  controllerAcceleration  ETV
vector 3  scenario.node[0].appl  speed  ETV
vector 4  scenario.node[0].appl  posx  ETV
vector 5  scenario.node[0].appl  posy  ETV
vector 22  scenario.node[1].appl  distance  ETV
vector 23  scenario.node[1].appl  relativeSpeed  ETV
vector 24  scenario.node[1].appl  nodeId  ETV
vector 28  scenario.node[1].appl  acceleration  ETV
vector 29  scenario.node[1].appl  controllerAcceleration  ETV
vector 25  scenario.node[1].appl  speed  ETV
vector 26  scenario.node[1].appl  posx  ETV
vector 27  scenario.node[1].appl  posy  ETV
vector 44  scenario.node[2].appl  distance  ETV
vector 45  scenario.node[2].appl  relativeSpeed  ETV
vector 46  scenario.node[2].appl  nodeId  ETV
vector 50  scenario.node[2].appl  acceleration  ETV
vector 51  scenario.node[2].appl  controllerAcceleration  ETV
vector 47  scenario.node[2].appl  speed  ETV
vector 48  scenario.node[2].appl  posx  ETV
vector 49  scenario.node[2].appl  posy  ETV
vector 66  scenario.node[3].appl  distance  ETV
vector 67  scenario.node[3].appl  relativeSpeed  ETV
vector 68  scenario.node[3].appl  nodeId  ETV
vector 72  scenario.node[3].appl  acceleration  ETV
vector 73  scenario.node[3].appl  controllerAcceleration  ETV
vector 69  scenario.node[3].appl  speed  ETV
vector 70  scenario.node[3].appl  posx  ETV
vector 71  scenario.node[3].appl  posy  ETV
vector 88  scenario.node[4].appl  distance  ETV
vector 89  scenario.node[4].appl  relativeSpeed  ETV
vector 90  scenario.node[4].appl  nodeId  ETV
vector 94  scenario.node[4].appl  acceleration  ETV
vector 95  scenario.node[4].appl  controllerAcceleration  ETV
vector 91  scenario.node[4].appl  speed  ETV
vector 92  scenario.node[4].appl  posx  ETV
vector 93  scenario.node[4].appl  posy  ETV
vector 110  scenario.node[5].appl  distance  ETV
vector 111  scenario.node[5].appl  relativeSpeed  ETV
vector 112  scenario.node[5].appl  nodeId  ETV
vector 116  scenario.node[5].appl  acceleration  ETV
vector 117  scenario.node[5].appl  controllerAcceleration  ETV
vector 113  scenario.node[5].appl  speed  ETV
vector 114  scenario.node[5].appl  posx  ETV
vector 115  scenario.node[5].appl  posy  ETV
vector 132  scenario.node[6].appl  distance  ETV
vector 133  scenario.node[6].appl  relativeSpeed  ETV
vector 134  scenario.node[6].appl  nodeId  ETV
vector 138  scenario.node[6].appl  acceleration  ETV
vector 139  scenario.node[6].appl  controllerAcceleration  ETV
vector 135  scenario.node[6].appl  speed  ETV
vector 136  scenario.node[6].appl  posx  ETV
vector 137  scenario.node[6].appl  posy  ETV
vector 154  scenario.node[7].appl  distance  ETV
vector 155  scenario.node[7].appl  relativeSpeed  ETV
vector 156  scenario.node[7].appl  nodeId  ETV
vector 160  scenario.node[7].appl  acceleration  ETV
vector 161  scenario.node[7].appl  controllerAcceleration  ETV
vector 157  scenario.node[7].appl  speed  ETV
vector 158  scenario.node[7].appl  posx  ETV
vector 159  scenario.node[7].appl  posy  ETV
vector 168  scenario.node[7].prot  frontDelay  ETV
vector 166  scenario.node[7].prot  frontDelayId  ETV
vector 146  scenario.node[6].prot  frontDelay  ETV
vector 144  scenario.node[6].prot  frontDelayId  ETV
vector 35  scenario.node[1].prot  leaderDelay  ETV
vector 33  scenario.node[1].prot  leaderDelayId  ETV
vector 36  scenario.node[1].prot  frontDelay  ETV
vector 34  scenario.node[1].prot  frontDelayId  ETV
vector 57  scenario.node[2].prot  leaderDelay  ETV
vector 55  scenario.node[2].prot  leaderDelayId  ETV
vector 79  scenario.node[3].prot  leaderDelay  ETV
vector 77  scenario.node[3].prot  leaderDelayId  ETV
vector 101  scenario.node[4].prot  leaderDelay  ETV
vector 99  scenario.node[4].prot  leaderDelayId  ETV
vector 123  scenario.node[5].prot  leaderDelay  ETV
vector 121  scenario.node[5].prot  leaderDelayId  ETV
vector 145  scenario.node[6].prot  leaderDelay  ETV
vector 143  scenario.node[6].prot  leaderDelayId  ETV
vector 167  scenario.node[7].prot  leaderDelay  ETV
vector 165  scenario.node[7].prot  leaderDelayId  ETV
vector 102  scenario.node[4].prot  frontDelay  ETV
vector 100  scenario.node[4].prot  frontDelayId  ETV
vector 80  scenario.node[3].prot  frontDelay  ETV
vector 78  scenario.node[3].prot  frontDelayId  ETV
vector 124  scenario.node[5].prot  frontDelay  ETV
vector 122  scenario.node[5].prot  frontDelayId  ETV
vector 58  scenario.node[2].prot  frontDelay  ETV
vector 56  scenario.node[2].prot  frontDelayId  ETV
vector 8  scenario.node[0].prot  nodeId  ETV
vector 9  scenario.node[0].prot  busyTime  ETV
vector 10  scenario.node[0].prot  collisions  ETV
vector 30  scenario.node[1].prot  nodeId  ETV
vector 31  scenario.node[1].prot  busyTime  ETV
vector 32  scenario.node[1].prot  collisions  ETV
vector 52  scenario.node[2].prot  nodeId  ETV
vector 53  scenario.node[2].prot  busyTime  ETV
vector 54  scenario.node[2].prot  collisions  ETV
vector 74  scenario.node[3].prot  nodeId  ETV
vector 75  scenario.node[3].prot  busyTime  ETV
vector 76  scenario.node[3].prot  collisions  ETV
vector 96  scenario.node[4].prot  nodeId  ETV
vector 97  scenario.node[4].prot  busyTime  ETV
vector 98  scenario.node[4].prot  collisions  ETV
vector 118  scenario.node[5].prot  nodeId  ETV
vector 119  scenario.node[5].prot  busyTime  ETV
vector 120  scenario.node[5].prot  collisions  ETV
vector 140  scenario.node[6].prot  nodeId  ETV
vector 141  scenario.node[6].prot  busyTime  ETV
vector 142  scenario.node[6].prot  collisions  ETV
vector 162  scenario.node[7].prot  nodeId  ETV
vector 163  scenario.node[7].prot  busyTime  ETV
vector 164  scenario.node[7].prot  collisions  ETV
7	11232 13855 232 328174 1.11 59.91 589 -1.5 1.5 -14.445957496355 993.24092342393
6	25087 18568 232 328174 1.11 59.91 589 -1.4722746795719 1.4513434175793 -12.507252200722 675.29835178084
5	43655 12081 232 328174 1.11 59.91 589 36.55 36.55 21527.95 786846.5725
4	55736 17890 232 328174 1.11 59.91 589 205.1155174258 1516.0983147902 507717.24223867 522061601.99859
3	73626 17918 232 328174 1.11 59.91 589 20.932410304178 24.18693697487 13131.616571188 293209.28872176
1	91544 9725 232 328174 1.11 59.91 589 0 0 0 0
0	101269 10314 232 328174 1.11 59.91 589 -1 -1 -589 589
2	111583 9725 232 328174 1.11 59.91 589 0 0 0 0
10	121308 858 5168 328662 2 60 59 0 0 0 0
9	122166 1154 5168 328662 2 60 59 0.023297 0.02625 1.545797 0.040508375209
8	123320 799 5168 328662 2 60 59 0 0 0 0
29	124119 18884 233 328175 1.11 59.91 589 -1.5201885292028 1.5215379193145 0.44430573468053 464.6644885851
28	143003 19647 233 328175 1.11 59.91 589 -1.4845166951787 1.4492363475501 0.69716830592554 317.49635281201
27	162650 12670 233 328175 1.11 59.91 589 36.55 36.55 21527.95 786846.5725
26	175320 18489 233 328175 1.11 59.91 589 181.11551742554 1501.4826148309 495215.51292996 502280789.48146
25	193809 18502 233 328175 1.11 59.91 589 20.920465777834 24.18267791308 13225.91818125 297262.68405196
23	212311 19679 233 328175 1.11 59.91 589 -2.1821126953117 1.2594099194118 -94.176537540564 315.09204093269
22	231990 18497 233 328175 1.11 59.91 589 9.4958362465877 22.28771088911 10147.615340904 184136.43180082
24	250487 10314 233 328175 1.11 59.91 589 1 1 589 589
36	260801 23694 1034 328420 1.262218481716 59.962213315696 588 0.099999245002 0.10001276862 58.799994595198 5.8799989216525
35	284495 23694 1034 328420 1.262218481716 59.962213315696 588 0.099999245002 0.10001276862 58.799994595198 5.8799989216525
34	308189 16112 1034 328420 1.262218481716 59.962213315696 588 1 1 588 588
33	324301 16112 1034 328420 1.262218481716 59.962213315696 588 1 1 588 588
32	340413 858 5169 328663 2 60 59 0 0 0 0
31	341271 1213 5169 328663 2 60 59 0.023296 0.02625 1.545796 0.040508328616
30	342484 858 5169 328663 2 60 59 1 1 59 59
51	343342 19603 234 328176 1.11 59.91 589 -1.4917898299595 1.4990053080695 1.4088766559731 451.32533567753
50	362945 19623 234 328176 1.11 59.91 589 -1.4755501957858 1.4415270080274 1.2737353678308 317.80962295652
49	382568 12670 234 328176 1.11 59.91 589 36.55 36.55 21527.95 786846.5725
48	395238 18499 234 328176 1.11 59.91 589 157.11551742554 1485.1148504425 482302.62465989 481972323.78595
47	413737 18505 234 328176 1.11 59.91 589 20.925142017698 24.177416689006 13302.259880058 300762.09498067
45	432242 20046 234 328176 1.11 59.91 589 -0.48074646315553 0.016578177785473 -76.348670490615 26.77690197373
44	452288 18476 234 328176 1.11 59.91 589 12.368875494674 20.045292192969 10558.415104052 194020.97222416
46	470764 10314 234 328176 1.11 59.91 589 2 2 1178 2356
58	481078 23723 1312 328707 1.302598202214 60.002605816817 588 0.099999244722 0.100012763807 58.800007375821 5.8800014779345
57	504801 23698 1040 328426 1.262218561772 59.962213370284 588 0.099999244983 0.100012768609 58.79999456973 5.8799989165589
56	528499 16124 1312 328707 1.302598202214 60.002605816817 588 2 2 1176 2352
55	544623 16111 1040 328426 1.262218561772 59.962213370284 588 2 2 1176 2352
54	560734 858 5170 328664 2 60 59 0 0 0 0
53	561592 1213 5170 328664 2 60 59 0.023297 0.02625 1.545797 0.040508375209
52	562805 858 5170 328664 2 60 59 2 2 118 236
73	563663 19462 235 328177 1.11 59.91 589 -1.5133685701277 1.5078355969603 2.161075832629 464.48180765676
72	583125 19590 235 328177 1.11 59.91 589 -1.4653396782236 1.4362317043069 2.250113302091 315.74541287264
71	602715 12670 235 328177 1.11 59.91 589 36.55 36.55 21527.95 786846.5725
70	615385 18484 235 328177 1.11 59.91 589 133.11552505493 1468.397322025 469226.58248706 461848853.52387
69	633869 18493 235 328177 1.11 59.91 589 20.931109919919 24.168471197975 13375.119043124 304136.29804231
67	652362 20170 235 328177 1.11 59.91 589 -0.42590467692241 0.011230180016717 -72.871900420013 22.71246775679
66	672532 18487 235 328177 1.11 59.91 589 12.719517163003 20.035282346938 10721.499356088 198999.29013187
68	691019 10314 235 328177 1.11 59.91 589 3 3 1767 5301
80	701333 23720 1176 328562 1.287874801937 59.987882537516 588 0.099999244884 0.100012763801 58.800007496797 5.8800015021289
79	725053 23692 1046 328432 1.262218641827 59.962213426031 588 0.09999924495 0.100012768605 58.799994545422 5.8799989116973
78	748745 16130 1176 328562 1.287874801937 59.987882537516 588 3 3 1764 5292
77	764875 16112 1046 328432 1.262218641827 59.962213426031 588 3 3 1764 5292
76	780987 858 5171 328665 2 60 59 0 0 0 0
75	781845 1213 5171 328665 2 60 59 0.023297 0.02625 1.545797 0.040508375209
74	783058 858 5171 328665 2 60 59 3 3 177 531
95	783916 19529 236 328178 1.11 59.91 589 -1.4996309155522 1.5 3.5283741664757 457.35183669369
94	803445 19581 236 328178 1.11 59.91 589 -1.4560433132338 1.4289148537916 3.6480834576096 313.14219493861
93	823026 12670 236 328178 1.11 59.91 589 36.55 36.55 21527.95 786846.5725
92	835696 18503 236 328178 1.11 59.91 589 109.11552505493 1451.2386842571 455989.83631925 441935575.4921
91	854199 18492 236 328178 1.11 59.91 589 20.938596048124 24.192115219939 13443.581684412 307335.90413697
89	872691 20178 236 328178 1.11 59.91 589 -0.37227779418241 0.011890494524039 -68.485142421137 19.751908123677
88	892869 18489 236 328178 1.11 59.91 589 13.161447925651 20.022255102752 10882.115420636 204093.19382153
90	911358 10314 236 328178 1.11 59.91 589 4 4 2356 9424
102	921672 24282 1108 328494 1.276580721882 59.976588483238 588 0.099999244903 0.100012763824 58.800007522574 5.8800015072843
101	945954 24284 1052 328438 1.262218721883 59.962213483243 588 0.099999244904 0.100012768602 58.799994522578 5.8799989071285
100	970238 16711 1108 328494 1.276580721882 59.976588483238 588 4 4 2352 9408
99	986949 16120 1052 328438 1.262218721883 59.962213483243 588 4 4 2352 9408
98	1003069 858 5172 328666 2 60 59 0 0 0 0
97	1003927 1213 5172 328666 2 60 59 0.023297 0.02625 1.545797 0.040508375209
96	1005140 858 5172 328666 2 60 59 4 4 236 944
117	1005998 19489 237 328179 1.11 59.91 589 -1.5082275531287 1.5066950632686 5.0635749186294 465.54230439209
116	1025487 20102 237 328179 1.11 59.91 589 -1.4565901561092 1.4321005809453 5.4210057838006 316.31423444663
115	1045589 13259 237 328179 1.11 59.91 589 36.55 36.55 21527.95 786846.5725
114	1058848 19080 237 328179 1.11 59.91 589 85.115521240234 1433.5453699779 442607.73308568 422278350.38421
113	1077928 19071 237 328179 1.11 59.91 589 20.935586330224 24.409892098828 13506.710838897 310314.35979855
111	1096999 20588 237 328179 1.11 59.91 589 -0.3336447826879 0.032214827266532 -63.165635318958 17.012348146468
110	1117587 19084 237 328179 1.11 59.91 589 13.69687912734 20.01941051426 11027.365816663 208782.5160069
112	1136671 10903 237 328179 1.11 59.91 589 5 5 2945 14725
124	1147574 24296 1244 328630 1.297504962048 59.997512653689 588 0.099999244778 0.100012763424 58.800007452859 5.8800014933399
123	1171870 24289 1058 328444 1.262218801938 59.962213542232 588 0.099999244844 0.100012768598 58.799994501512 5.8799989029153
122	1196159 16711 1244 328630 1.297504962048 59.997512653689 588 5 5 2940 14700
121	1212870 16699 1058 328444 1.262218801938 59.962213542232 588 5 5 2940 14700
120	1229569 917 5173 328667 2 60 59 0 0 0 0
119	1230486 1272 5173 328667 2 60 59 0.023297 0.02625 1.545797 0.040508375209
118	1231758 917 5173 328667 2 60 59 5 5 295 1475
139	1232675 20083 238 328180 1.11 59.91 589 -1.4953972035415 1.4959038917853 7.2185519711978 457.3864215078
138	1252758 20108 238 328180 1.11 59.91 589 -1.460398020512 1.4350229167032 7.4992254002535 318.34684789665
137	1272866 13259 238 328180 1.11 59.91 589 36.55 36.55 21527.95 786846.5725
136	1286125 19081 238 328180 1.11 59.91 589 61.115521240234 1415.274688013 429094.16444733 402923819.83869
135	1305206 19090 238 328180 1.11 59.91 589 20.932251187162 24.590792872755 13564.076758921 313043.3901142
133	1324296 20806 238 328180 1.11 59.91 589 -0.30874703004644 0.010619136898182 -57.420130082228 14.650882703849
132	1345102 19082 238 328180 1.11 59.91 589 14.274845409027 20.02759228382 11158.71595675 213147.87450637
134	1364184 10903 238 328180 1.11 59.91 589 6 6 3534 21204
146	1375087 24297 970 328356 1.247596081439 59.947591052899 588 0.099999245956 0.100012762725 58.799994732678 5.8799989491522
145	1399384 24303 1064 328450 1.262218881993 59.962213603141 588 0.099999244774 0.100012768601 58.799994482366 5.8799988990861
144	1423687 16707 970 328356 1.247596081439 59.947591052899 588 6 6 3528 21168
143	1440394 16720 1064 328450 1.262218881993 59.962213603141 588 6 6 3528 21168
142	1457114 917 5174 328668 2 60 59 0 0 0 0
141	1458031 1272 5174 328668 2 60 59 0.023297 0.02625 1.545797 0.040508375209
140	1459303 917 5174 328668 2 60 59 6 6 354 2124
161	1460220 20073 239 328181 1.11 59.91 589 -1.4856633859398 1.4866431835236 9.3748785975742 446.08195798344
160	1480293 20082 239 328181 1.11 59.91 589 -1.4555085938561 1.4298755943933 9.7943776312171 316.47325351955
159	1500375 13259 239 328181 1.11 59.91 589 36.55 36.55 21527.95 786846.5725
158	1513634 19082 239 328181 1.11 59.91 589 37.115522193909 1396.3924176089 415468.19053702 383926247.27396
157	1532716 19063 239 328181 1.11 59.91 589 20.937275541998 24.739422217999 13615.334545876 315497.85010938
155	1551779 20843 239 328181 1.11 59.91 589 -0.28682343340376 0.0086296055121231 -51.332779208879 12.316805607961
154	1572622 19090 239 328181 1.11 59.91 589 14.886874896142 20.013502928314 11270.999066049 216947.91601497
156	1591712 10903 239 328181 1.11 59.91 589 7 7 4123 28861
168	1602615 24290 832 328218 1.212137841273 59.912132868061 588 0.099999246172 0.100012772144 58.799994788006 5.8799989602114
167	1626905 24282 1070 328456 1.262218962049 59.962213666088 588 0.099999244698 0.100012768602 58.799994465257 5.8799988956643
166	1651187 16714 832 328218 1.212137841273 59.912132868061 588 7 7 4116 28812
165	1667901 16696 1070 328456 1.262218962049 59.962213666088 588 7 7 4116 28812
164	1684597 917 5175 328669 2 60 59 0 0 0 0
163	1685514 1272 5175 328669 2 60 59 0.023297 0.02625 1.545797 0.040508375209
162	1686786 917 5175 328669 2 60 59 7 7 413 2891
