file 1692134 1501510452                                         
version 2
run SinusoidalJammingAttack-108-20170731-16:13:41-113713
attr CACCSpacing 12.5
attr attackAcc -30
attr attackPos 7
attr attackSpeed 150
attr attackStart 30
attr attacker 1
attr beaconInterval 0.1
attr configname SinusoidalJammingAttack
attr controller 1
attr datetime 20170731-16:13:41
attr experiment SinusoidalJammingAttack
attr fakeAcc "(1 == 4)"
attr fakePos "(1 == 2)"
attr fakeSpeed "(1 == 3)"
attr inifile omnetpp_108.ini
attr iterationvars "$leaderSpeed=150, $controller=1, $CACCSpacing=12.5, $sController=\"CACC\", $attacker=1, $attackStart=30, $attackSpeed=150, $attackPos=7, $attackAcc=-30, $0=12.5, $1=0, $nCars=8, $platoonSize=8, $nLanes=1, $beaconInterval=0.1, $priority=2, $packetSize=200, $ploegH=0.5, $leaderHeadway=1.2, $fakeSpeed=(1 == 3), $fakeAcc=(1 == 4), $fakePos=(1 == 2)"
attr iterationvarsf leaderSpeed=150,controller=1,CACCSpacing=12.5,sController=CACC,attacker=1,attackStart=30,attackSpeed=150,attackPos=7,attackAcc=-30,12.5,0,nCars=8,platoonSize=8,nLanes=1,beaconInterval=0.1,priority=2,packetSize=200,ploegH=0.5,leaderHeadway=1.2,fakeSpeed=(1_==_3),fakeAcc=(1_==_4),fakePos=(1_==_2)-
attr leaderHeadway 1.2
attr leaderSpeed 150
attr measurement "$leaderSpeed=150, $controller=1, $CACCSpacing=12.5, $sController=\"CACC\", $attacker=1, $attackStart=30, $attackSpeed=150, $attackPos=7, $attackAcc=-30, $0=12.5, $1=0, $nCars=8, $platoonSize=8, $nLanes=1, $beaconInterval=0.1, $priority=2, $packetSize=200, $ploegH=0.5, $leaderHeadway=1.2, $fakeSpeed=(1 == 3), $fakeAcc=(1 == 4), $fakePos=(1 == 2)"
attr nCars 8
attr nLanes 1
attr network scenario
attr packetSize 200
attr platoonSize 8
attr ploegH 0.5
attr priority 2
attr processid 113713
attr repetition 3
attr replication #3
attr resultdir results
attr runnumber 108
attr sController "\"CACC\""
attr seedset 3
param **.coreDebug false
param **.debug false
param **.headway 0.1s
param **.numberOfCars 8
param **.numberOfCarsPerPlatoon 8
param **.numberOfLanes 1
param **.numericController 1
param **.traffic.nCars 8
param **.traffic.nLanes 1
param **.traffic.platoonInsertDistance 12.5m
param **.traffic.platoonInsertHeadway 0s
param **.traffic.platoonInsertSpeed 150kmph
param **.traffic.platoonInsertTime "1 s"
param **.traffic.platoonLeaderHeadway 1.2s
param **.traffic.platoonSize 8
param **.traffic.platooningVType "\"vtypeauto\""
param **.traffic_type "\"PlatoonsTrafficManager\""
param *.**.nic.mac1609_4.bitrate 6Mbps
param *.**.nic.mac1609_4.txPower 100mW
param *.**.nic.mac1609_4.useServiceChannel false
param *.**.nic.phy80211p.analogueModels "xmldoc(\"config.xml\")"
param *.**.nic.phy80211p.decider "xmldoc(\"config.xml\")"
param *.**.nic.phy80211p.maxTXPower 100mW
param *.**.nic.phy80211p.sensitivity -94dBm
param *.**.nic.phy80211p.thermalNoise -95dBm
param *.**.nic.phy80211p.usePropagationDelay true
param *.**.nic.phy80211p.useThermalNoise true
param *.annotations.draw false
param *.connectionManager.alpha 2.0
param *.connectionManager.carrierFrequency "5.890e9 Hz"
param *.connectionManager.pMax 100mW
param *.connectionManager.sat -94dBm
param *.connectionManager.sendDirect true
param *.manager.autoShutdown true
param *.manager.commandLine "\"sumo --remote-port $port --seed $seed --configuration-file $configFile\""
param *.manager.configFile "\"./sumocfg/freeway.sumo.cfg\""
param *.manager.host "\"localhost\""
param *.manager.margin 25
param *.manager.moduleDisplayString "\"\""
param *.manager.moduleName "\"node\""
param *.manager.moduleType "\"Car\""
param *.manager.updateInterval 0.01s
param *.node[*].appl.attackStart 30s
param *.node[*].appl.attackerType 1
param *.node[*].appl.simulationDuration "60 s"
param *.node[*].appl_type "\"SimplePlatooningApp\""
param *.node[*].helper.nCars 8
param *.node[*].helper.nLanes 1
param *.node[*].helper.platoonSize 8
param *.node[*].helper_type "\"PositionHelper\""
param *.node[*].mobility.x 0
param *.node[*].mobility.y 0
param *.node[*].mobility.z 1.895
param *.node[*].prot.attackStart 30s
param *.node[*].prot.attackerType 1
param *.node[*].prot.attackingNode 3
param *.node[*].prot.beaconingInterval 0.1s
param *.node[*].prot.fakeAcc "(1 == 4)"
param *.node[*].prot.fakePos "(1 == 2)"
param *.node[*].prot.fakeSpeed "(1 == 3)"
param *.node[*].prot.maliciousAcc "-30 mpss"
param *.node[*].prot.maliciousSpeed 150kmph
param *.node[*].prot.packetSize 200
param *.node[*].prot.priority 2
param *.node[*].prot.shiftX "7 m"
param *.node[*].prot.useControllerAcceleration true
param *.node[*].protocol_type "\"SimplePlatooningBeaconing\""
param *.node[*].scenario.accHeadway 0.1s
param *.node[*].scenario.caccC1 0.5
param *.node[*].scenario.caccOmegaN "0.2 Hz"
param *.node[*].scenario.caccSpacing 12.5m
param *.node[*].scenario.caccXi 1
param *.node[*].scenario.controller "\"CACC\""
param *.node[*].scenario.engineTau "0.5 s"
param *.node[*].scenario.leaderHeadway 1.2s
param *.node[*].scenario.leaderOscillationFrequency "0.2 Hz"
param *.node[*].scenario.leaderSpeed 150kmph
param *.node[*].scenario.oscillationAmplitude "10 kmph"
param *.node[*].scenario.ploegH 0.5s
param *.node[*].scenario.ploegKd 0.7
param *.node[*].scenario.ploegKp 0.2
param *.node[*].scenario.startOscillating "5 s"
param *.node[*].scenario.useRealisticEngine false
param *.node[*].scenario_type "\"SinusoidalScenario\""
param *.node[*].unicast.packetLossRate 0
param *.obstacles.debug false
param *.playgroundSizeX 65000m
param *.playgroundSizeY 25000m
param *.playgroundSizeZ 50m
param *.world.use2D false
param *.world.useTorus false

vector 0  scenario.node[0].appl  distance  ETV
vector 1  scenario.node[0].appl  relativeSpeed  ETV
vector 2  scenario.node[0].appl  nodeId  ETV
vector 6  scenario.node[0].appl  acceleration  ETV
vector 7  scenario.node[0].appl  controllerAcceleration  ETV
vector 3  scenario.node[0].appl  speed  ETV
vector 4  scenario.node[0].appl  posx  ETV
vector 5  scenario.node[0].appl  posy  ETV
vector 22  scenario.node[1].appl  distance  ETV
vector 23  scenario.node[1].appl  relativeSpeed  ETV
vector 24  scenario.node[1].appl  nodeId  ETV
vector 28  scenario.node[1].appl  acceleration  ETV
vector 29  scenario.node[1].appl  controllerAcceleration  ETV
vector 25  scenario.node[1].appl  speed  ETV
vector 26  scenario.node[1].appl  posx  ETV
vector 27  scenario.node[1].appl  posy  ETV
vector 44  scenario.node[2].appl  distance  ETV
vector 45  scenario.node[2].appl  relativeSpeed  ETV
vector 46  scenario.node[2].appl  nodeId  ETV
vector 50  scenario.node[2].appl  acceleration  ETV
vector 51  scenario.node[2].appl  controllerAcceleration  ETV
vector 47  scenario.node[2].appl  speed  ETV
vector 48  scenario.node[2].appl  posx  ETV
vector 49  scenario.node[2].appl  posy  ETV
vector 66  scenario.node[3].appl  distance  ETV
vector 67  scenario.node[3].appl  relativeSpeed  ETV
vector 68  scenario.node[3].appl  nodeId  ETV
vector 72  scenario.node[3].appl  acceleration  ETV
vector 73  scenario.node[3].appl  controllerAcceleration  ETV
vector 69  scenario.node[3].appl  speed  ETV
vector 70  scenario.node[3].appl  posx  ETV
vector 71  scenario.node[3].appl  posy  ETV
vector 88  scenario.node[4].appl  distance  ETV
vector 89  scenario.node[4].appl  relativeSpeed  ETV
vector 90  scenario.node[4].appl  nodeId  ETV
vector 94  scenario.node[4].appl  acceleration  ETV
vector 95  scenario.node[4].appl  controllerAcceleration  ETV
vector 91  scenario.node[4].appl  speed  ETV
vector 92  scenario.node[4].appl  posx  ETV
vector 93  scenario.node[4].appl  posy  ETV
vector 110  scenario.node[5].appl  distance  ETV
vector 111  scenario.node[5].appl  relativeSpeed  ETV
vector 112  scenario.node[5].appl  nodeId  ETV
vector 116  scenario.node[5].appl  acceleration  ETV
vector 117  scenario.node[5].appl  controllerAcceleration  ETV
vector 113  scenario.node[5].appl  speed  ETV
vector 114  scenario.node[5].appl  posx  ETV
vector 115  scenario.node[5].appl  posy  ETV
vector 132  scenario.node[6].appl  distance  ETV
vector 133  scenario.node[6].appl  relativeSpeed  ETV
vector 134  scenario.node[6].appl  nodeId  ETV
vector 138  scenario.node[6].appl  acceleration  ETV
vector 139  scenario.node[6].appl  controllerAcceleration  ETV
vector 135  scenario.node[6].appl  speed  ETV
vector 136  scenario.node[6].appl  posx  ETV
vector 137  scenario.node[6].appl  posy  ETV
vector 154  scenario.node[7].appl  distance  ETV
vector 155  scenario.node[7].appl  relativeSpeed  ETV
vector 156  scenario.node[7].appl  nodeId  ETV
vector 160  scenario.node[7].appl  acceleration  ETV
vector 161  scenario.node[7].appl  controllerAcceleration  ETV
vector 157  scenario.node[7].appl  speed  ETV
vector 158  scenario.node[7].appl  posx  ETV
vector 159  scenario.node[7].appl  posy  ETV
vector 35  scenario.node[1].prot  leaderDelay  ETV
vector 33  scenario.node[1].prot  leaderDelayId  ETV
vector 36  scenario.node[1].prot  frontDelay  ETV
vector 34  scenario.node[1].prot  frontDelayId  ETV
vector 57  scenario.node[2].prot  leaderDelay  ETV
vector 55  scenario.node[2].prot  leaderDelayId  ETV
vector 79  scenario.node[3].prot  leaderDelay  ETV
vector 77  scenario.node[3].prot  leaderDelayId  ETV
vector 101  scenario.node[4].prot  leaderDelay  ETV
vector 99  scenario.node[4].prot  leaderDelayId  ETV
vector 123  scenario.node[5].prot  leaderDelay  ETV
vector 121  scenario.node[5].prot  leaderDelayId  ETV
vector 145  scenario.node[6].prot  leaderDelay  ETV
vector 143  scenario.node[6].prot  leaderDelayId  ETV
vector 167  scenario.node[7].prot  leaderDelay  ETV
vector 165  scenario.node[7].prot  leaderDelayId  ETV
vector 168  scenario.node[7].prot  frontDelay  ETV
vector 166  scenario.node[7].prot  frontDelayId  ETV
vector 58  scenario.node[2].prot  frontDelay  ETV
vector 56  scenario.node[2].prot  frontDelayId  ETV
vector 124  scenario.node[5].prot  frontDelay  ETV
vector 122  scenario.node[5].prot  frontDelayId  ETV
vector 80  scenario.node[3].prot  frontDelay  ETV
vector 78  scenario.node[3].prot  frontDelayId  ETV
vector 146  scenario.node[6].prot  frontDelay  ETV
vector 144  scenario.node[6].prot  frontDelayId  ETV
vector 102  scenario.node[4].prot  frontDelay  ETV
vector 100  scenario.node[4].prot  frontDelayId  ETV
vector 8  scenario.node[0].prot  nodeId  ETV
vector 9  scenario.node[0].prot  busyTime  ETV
vector 10  scenario.node[0].prot  collisions  ETV
vector 30  scenario.node[1].prot  nodeId  ETV
vector 31  scenario.node[1].prot  busyTime  ETV
vector 32  scenario.node[1].prot  collisions  ETV
vector 52  scenario.node[2].prot  nodeId  ETV
vector 53  scenario.node[2].prot  busyTime  ETV
vector 54  scenario.node[2].prot  collisions  ETV
vector 74  scenario.node[3].prot  nodeId  ETV
vector 75  scenario.node[3].prot  busyTime  ETV
vector 76  scenario.node[3].prot  collisions  ETV
vector 96  scenario.node[4].prot  nodeId  ETV
vector 97  scenario.node[4].prot  busyTime  ETV
vector 98  scenario.node[4].prot  collisions  ETV
vector 118  scenario.node[5].prot  nodeId  ETV
vector 119  scenario.node[5].prot  busyTime  ETV
vector 120  scenario.node[5].prot  collisions  ETV
vector 140  scenario.node[6].prot  nodeId  ETV
vector 141  scenario.node[6].prot  busyTime  ETV
vector 142  scenario.node[6].prot  collisions  ETV
vector 162  scenario.node[7].prot  nodeId  ETV
vector 163  scenario.node[7].prot  busyTime  ETV
vector 164  scenario.node[7].prot  collisions  ETV
7	11261 13862 232 328174 1.11 59.91 589 -1.5 1.5 -14.445978168666 993.24092374633
6	25123 18591 232 328174 1.11 59.91 589 -1.4722746794739 1.4513434175775 -12.507273387293 675.29835233824
5	43714 12081 232 328174 1.11 59.91 589 36.55 36.55 21527.95 786846.5725
4	55795 17912 232 328174 1.11 59.91 589 159.01262931784 2613.3287619047 817274.30891414 1430245229.0649
3	73707 17882 232 328174 1.11 59.91 589 40.376854748618 43.631381416411 24584.394369227 1026576.1694128
1	91589 9725 232 328174 1.11 59.91 589 0 0 0 0
0	101314 10314 232 328174 1.11 59.91 589 -1 -1 -589 589
2	111628 9725 232 328174 1.11 59.91 589 0 0 0 0
10	121353 858 5056 328550 2 60 59 0 0 0 0
9	122211 1559 5056 328550 2 60 59 0.022761451327 0.026261161711 1.545260007699 0.040483635056621
8	123770 799 5056 328550 2 60 59 0 0 0 0
29	124569 19620 233 328175 1.11 59.91 589 -1.5233934355202 1.5241491628948 0.84701428408753 469.58108604038
28	144189 19651 233 328175 1.11 59.91 589 -1.4872877578782 1.463189245208 0.71535993351688 320.18119888063
27	163840 12670 233 328175 1.11 59.91 589 36.55 36.55 21527.95 786846.5725
26	176510 18494 233 328175 1.11 59.91 589 142.51262168884 2606.214936459 809214.05148933 1410798443.7215
25	195004 18493 233 328175 1.11 59.91 589 40.361986940566 43.63679438835 24678.714616651 1034299.4350722
23	213497 19692 233 328175 1.11 59.91 589 -2.1732366986967 1.2679076496463 -94.19517468985 314.12695110562
22	233189 18501 233 328175 1.11 59.91 589 1.9926459820822 14.698929135208 5706.1438297594 64487.565709424
24	251690 10314 233 328175 1.11 59.91 589 1 1 589 589
36	262004 23706 836 328222 1.269558486027 59.969556383878 588 0.099998826887 0.100012437094 58.79999732884 5.8799994708606
35	285710 23706 836 328222 1.269558486027 59.969556383878 588 0.099998826887 0.100012437094 58.79999732884 5.8799994708606
34	309416 16120 836 328222 1.269558486027 59.969556383878 588 1 1 588 588
33	325536 16120 836 328222 1.269558486027 59.969556383878 588 1 1 588 588
32	341656 858 5057 328551 2 60 59 0 0 0 0
31	342514 1616 5057 328551 2 60 59 0.022761506365 0.026261157784 1.545260031075 0.040483635899707
30	344130 858 5057 328551 2 60 59 1 1 59 59
51	344988 19615 234 328176 1.11 59.91 589 -1.5293286881409 1.5293867906746 1.2995287487883 473.73628941343
50	364603 19681 234 328176 1.11 59.91 589 -1.4784118414745 1.4534827975652 1.2579849830836 319.85538666863
49	384284 12670 234 328176 1.11 59.91 589 36.55 36.55 21527.95 786846.5725
48	396954 18473 234 328176 1.11 59.91 589 126.01262168884 2597.3501036921 800727.05084451 1389690626.5043
47	415427 18499 234 328176 1.11 59.91 589 40.369306388797 43.630616539452 24755.08544087 1040768.5670822
45	433926 20178 234 328176 1.11 59.91 589 -0.47853296546275 0.011086173023322 -76.377977819039 26.528044112925
44	454104 18472 234 328176 1.11 59.91 589 4.8659360202419 12.53633629614 6132.528061302 68595.812741352
46	472576 10314 234 328176 1.11 59.91 589 2 2 1178 2356
58	482890 23700 1046 328432 1.299190201522 59.999187813658 588 0.099998826263 0.100012437382 58.799997043125 5.8799994137144
57	506590 23679 842 328228 1.269558541065 59.969556413439 588 0.099998826869 0.100012437039 58.799997303363 5.8799994657652
56	530269 16117 1046 328432 1.299190201522 59.999187813658 588 2 2 1176 2352
55	546386 16107 842 328228 1.269558541065 59.969556413439 588 2 2 1176 2352
54	562493 858 5058 328552 2 60 59 0 0 0 0
53	563351 1615 5058 328552 2 60 59 0.022761561403 0.026261157421 1.54526006063 0.040483637067347
52	564966 858 5058 328552 2 60 59 2 2 118 236
73	565824 19541 235 328177 1.11 59.91 589 -1.4888807774164 1.4893729650939 2.1646431306056 444.62989407916
72	585365 19586 235 328177 1.11 59.91 589 -1.4638941738752 1.4373566198884 2.2349214664914 315.52672036853
71	604951 12670 235 328177 1.11 59.91 589 36.55 36.55 21527.95 786846.5725
70	617621 18490 235 328177 1.11 59.91 589 109.51262168884 2588.14025995 792066.31717252 1368130857.8135
69	636111 18516 235 328177 1.11 59.91 589 40.380412211561 43.617118541487 24828.021343453 1046980.8078306
67	654627 19967 235 328177 1.11 59.91 589 -0.42850860147833 0.033958471262373 -72.948482432631 23.005102968581
66	674594 18462 235 328177 1.11 59.91 589 5.2118145046647 12.569674778926 6306.1923900377 71383.815584987
68	693056 10314 235 328177 1.11 59.91 589 3 3 1767 5301
80	703370 23699 1180 328575 1.300211476712 60.000208970065 588 0.099998826073 0.100012438811 58.799996924342 5.8799993899562
79	727069 23684 848 328234 1.269558596103 59.969556444144 588 0.099998826837 0.100012437012 58.79999727903 5.8799994608986
78	750753 16109 1180 328575 1.300211476712 60.000208970065 588 3 3 1764 5292
77	766862 16103 848 328234 1.269558596103 59.969556444144 588 3 3 1764 5292
76	782965 858 5059 328553 2 60 59 0 0 0 0
75	783823 1613 5059 328553 2 60 59 0.022760506365 0.026261157964 1.545259029935 0.040483590317845
74	785436 858 5059 328553 2 60 59 3 3 177 531
95	786294 19518 236 328178 1.11 59.91 589 -1.4835633871483 1.4833558080397 3.4609220504265 438.11658721039
94	805812 19578 236 328178 1.11 59.91 589 -1.4536758419823 1.4275171363025 3.6291085641089 312.38054149032
93	825390 12670 236 328178 1.11 59.91 589 36.55 36.55 21527.95 786846.5725
92	838060 18504 236 328178 1.11 59.91 589 93.01262550354 2578.487452993 783245.18145764 1346166102.1057
91	856564 18492 236 328178 1.11 59.91 589 40.389112233754 43.632877672214 24896.542175765 1052847.2895001
89	875056 20137 236 328178 1.11 59.91 589 -0.373384564563 0.013355025864946 -68.543181526666 19.829357454957
88	895193 18499 236 328178 1.11 59.91 589 5.6556120255054 12.533794814737 6466.5061315279 74050.462178429
90	913692 10314 236 328178 1.11 59.91 589 4 4 2356 9424
102	924006 24286 1312 328707 1.306029751902 60.00606613432 588 0.09990807999 0.100103430989 58.799970813407 5.8799953048192
101	948292 24285 854 328240 1.269558651141 59.969556476319 588 0.09999882679 0.100012436995 58.799997256167 5.879999456326
100	972577 16706 1312 328707 1.306029751902 60.00606613432 588 4 4 2352 9408
99	989283 16109 854 328240 1.269558651141 59.969556476319 588 4 4 2352 9408
98	1005392 858 5060 328554 2 60 59 0 0 0 0
97	1006250 1618 5060 328554 2 60 59 0.022761451327 0.026261158663 1.545259997774 0.040483634535409
96	1007868 858 5060 328554 2 60 59 4 4 236 944
117	1008726 20106 237 328179 1.11 59.91 589 -1.5014801012429 1.5049213774171 5.2124669497865 456.91300284414
116	1028832 20154 237 328179 1.11 59.91 589 -1.4472992900053 1.422156896853 5.3965336551876 310.56724184815
115	1048986 13259 237 328179 1.11 59.91 589 36.55 36.55 21527.95 786846.5725
114	1062245 19083 237 328179 1.11 59.91 589 76.51262550354 2568.3123422999 774279.01367811 1323858314.4496
113	1081328 19105 237 328179 1.11 59.91 589 40.394952402552 43.854442865029 24959.853033484 1058293.543793
111	1100433 20622 237 328179 1.11 59.91 589 -0.33716385181836 0.019160358822667 -63.347148804344 17.186615033971
110	1121055 19064 237 328179 1.11 59.91 589 6.1786598941039 12.518762753757 6611.4339966849 76561.365266513
112	1140119 10903 237 328179 1.11 59.91 589 5 5 2945 14725
124	1151022 24303 1112 328498 1.299603366636 59.999600910407 588 0.099998826125 0.100012441753 58.80000997476 5.880002000189
123	1175325 24303 860 328246 1.269558706179 59.96955651023 588 0.099998826731 0.100012436985 58.79999723504 5.8799994521006
122	1199628 16710 1112 328498 1.299603366636 59.999600910407 588 5 5 2940 14700
121	1216338 16709 860 328246 1.269558706179 59.96955651023 588 5 5 2940 14700
120	1233047 917 5061 328555 2 60 59 0 0 0 0
119	1233964 1676 5061 328555 2 60 59 0.022760396289 0.026261159479 1.545258963881 0.040483587618242
118	1235640 917 5061 328555 2 60 59 5 5 295 1475
139	1236557 20066 238 328180 1.11 59.91 589 -1.4833385394569 1.4846827315711 7.1183479709357 442.88186180356
138	1256623 20110 238 328180 1.11 59.91 589 -1.4512379541465 1.4280810474546 7.4756100013012 315.21266886801
137	1276733 13259 238 328180 1.11 59.91 589 36.55 36.55 21527.95 786846.5725
136	1289992 19084 238 328180 1.11 59.91 589 60.012623596191 2557.5378090609 765185.0754631 1301276829.0758
135	1309076 19083 238 328180 1.11 59.91 589 40.388346360902 44.030266536654 25017.180653703 1063250.136808
133	1328159 20580 238 328180 1.11 59.91 589 -0.3065947886797 0.046328251552502 -57.381585555274 14.639164551356
132	1348739 19080 238 328180 1.11 59.91 589 6.7787075149927 12.537558399007 6739.0847674178 78846.500250323
134	1367819 10903 238 328180 1.11 59.91 589 6 6 3534 21204
146	1378722 24282 1249 328644 1.305616641826 60.005614071997 588 0.099998825898 0.100012441597 58.79999686116 5.8799993773157
145	1403004 24256 866 328252 1.269558761217 59.969556546135 588 0.099998826661 0.100012436976 58.799997215907 5.879999448274
144	1427260 16702 1249 328644 1.305616641826 60.005614071997 588 6 6 3528 21168
143	1443962 16682 866 328252 1.269558761217 59.969556546135 588 6 6 3528 21168
142	1460644 917 5062 328556 2 60 59 0 0 0 0
141	1461561 1673 5062 328556 2 60 59 0.022761341251 0.026261160363 1.545259927996 0.040483631640086
140	1463234 917 5062 328556 2 60 59 6 6 354 2124
161	1464151 20079 239 328181 1.11 59.91 589 -1.5021746528943 1.5049027672505 9.5029798107197 461.8736768674
160	1484230 20128 239 328181 1.11 59.91 589 -1.4497273417881 1.4254867291221 9.7725097799156 314.03233181348
159	1504358 13259 239 328181 1.11 59.91 589 36.55 36.55 21527.95 786846.5725
158	1517617 19074 239 328181 1.11 59.91 589 43.512624549866 2546.1662371089 755975.27473721 1278485252.4342
157	1536691 19080 239 328181 1.11 59.91 589 40.391298908535 44.180826522871 25068.545356992 1067708.2213795
155	1555771 20891 239 328181 1.11 59.91 589 -0.28725514680999 0.0045408527285602 -51.439459389133 12.374839636964
154	1576662 19077 239 328181 1.11 59.91 589 7.3761747495901 12.518944153516 6854.8280199488 81056.544681324
156	1595739 10903 239 328181 1.11 59.91 589 7 7 4123 28861
168	1606642 24298 980 328366 1.292107926332 59.992105659784 588 0.099998826431 0.100012441178 58.799997164441 5.8799994379731
167	1630940 24277 872 328258 1.269558816256 59.969556584028 588 0.099998826584 0.100012436975 58.799997198761 5.8799994448448
166	1655217 16715 980 328366 1.292107926332 59.992105659784 588 7 7 4116 28812
165	1671932 16692 872 328258 1.269558816256 59.969556584028 588 7 7 4116 28812
164	1688624 917 5063 328557 2 60 59 0 0 0 0
163	1689541 1676 5063 328557 2 60 59 0.022761286213 0.026261161273 1.545259890126 0.040483630035933
162	1691217 917 5063 328557 2 60 59 7 7 413 2891
