file 1698481 1501510685                                         
version 2
run SinusoidalJammingAttack-123-20170731-16:17:34-61093
attr CACCSpacing 5
attr attackAcc -30
attr attackPos 7
attr attackSpeed 150
attr attackStart 30
attr attacker 1
attr beaconInterval 0.1
attr configname SinusoidalJammingAttack
attr controller 3
attr datetime 20170731-16:17:34
attr experiment SinusoidalJammingAttack
attr fakeAcc "(1 == 4)"
attr fakePos "(1 == 2)"
attr fakeSpeed "(1 == 3)"
attr inifile omnetpp_123.ini
attr iterationvars "$leaderSpeed=150, $controller=3, $CACCSpacing=5, $sController=\"CONSENSUS\", $attacker=1, $attackStart=30, $attackSpeed=150, $attackPos=7, $attackAcc=-30, $0=15, $1=0.8, $nCars=8, $platoonSize=8, $nLanes=1, $beaconInterval=0.1, $priority=2, $packetSize=200, $ploegH=0.5, $leaderHeadway=1.2, $fakeSpeed=(1 == 3), $fakeAcc=(1 == 4), $fakePos=(1 == 2)"
attr iterationvarsf leaderSpeed=150,controller=3,CACCSpacing=5,sController=CONSENSUS,attacker=1,attackStart=30,attackSpeed=150,attackPos=7,attackAcc=-30,15,0.8,nCars=8,platoonSize=8,nLanes=1,beaconInterval=0.1,priority=2,packetSize=200,ploegH=0.5,leaderHeadway=1.2,fakeSpeed=(1_==_3),fakeAcc=(1_==_4),fakePos=(1_==_2)-
attr leaderHeadway 1.2
attr leaderSpeed 150
attr measurement "$leaderSpeed=150, $controller=3, $CACCSpacing=5, $sController=\"CONSENSUS\", $attacker=1, $attackStart=30, $attackSpeed=150, $attackPos=7, $attackAcc=-30, $0=15, $1=0.8, $nCars=8, $platoonSize=8, $nLanes=1, $beaconInterval=0.1, $priority=2, $packetSize=200, $ploegH=0.5, $leaderHeadway=1.2, $fakeSpeed=(1 == 3), $fakeAcc=(1 == 4), $fakePos=(1 == 2)"
attr nCars 8
attr nLanes 1
attr network scenario
attr packetSize 200
attr platoonSize 8
attr ploegH 0.5
attr priority 2
attr processid 61093
attr repetition 3
attr replication #3
attr resultdir results
attr runnumber 123
attr sController "\"CONSENSUS\""
attr seedset 3
param **.coreDebug false
param **.debug false
param **.headway 0.1s
param **.numberOfCars 8
param **.numberOfCarsPerPlatoon 8
param **.numberOfLanes 1
param **.numericController 3
param **.traffic.nCars 8
param **.traffic.nLanes 1
param **.traffic.platoonInsertDistance 15m
param **.traffic.platoonInsertHeadway 0.8s
param **.traffic.platoonInsertSpeed 150kmph
param **.traffic.platoonInsertTime "1 s"
param **.traffic.platoonLeaderHeadway 1.2s
param **.traffic.platoonSize 8
param **.traffic.platooningVType "\"vtypeauto\""
param **.traffic_type "\"PlatoonsTrafficManager\""
param *.**.nic.mac1609_4.bitrate 6Mbps
param *.**.nic.mac1609_4.txPower 100mW
param *.**.nic.mac1609_4.useServiceChannel false
param *.**.nic.phy80211p.analogueModels "xmldoc(\"config.xml\")"
param *.**.nic.phy80211p.decider "xmldoc(\"config.xml\")"
param *.**.nic.phy80211p.maxTXPower 100mW
param *.**.nic.phy80211p.sensitivity -94dBm
param *.**.nic.phy80211p.thermalNoise -95dBm
param *.**.nic.phy80211p.usePropagationDelay true
param *.**.nic.phy80211p.useThermalNoise true
param *.annotations.draw false
param *.connectionManager.alpha 2.0
param *.connectionManager.carrierFrequency "5.890e9 Hz"
param *.connectionManager.pMax 100mW
param *.connectionManager.sat -94dBm
param *.connectionManager.sendDirect true
param *.manager.autoShutdown true
param *.manager.commandLine "\"sumo --remote-port $port --seed $seed --configuration-file $configFile\""
param *.manager.configFile "\"./sumocfg/freeway.sumo.cfg\""
param *.manager.host "\"localhost\""
param *.manager.margin 25
param *.manager.moduleDisplayString "\"\""
param *.manager.moduleName "\"node\""
param *.manager.moduleType "\"Car\""
param *.manager.updateInterval 0.01s
param *.node[*].appl.attackStart 30s
param *.node[*].appl.attackerType 1
param *.node[*].appl.simulationDuration "60 s"
param *.node[*].appl_type "\"SimplePlatooningApp\""
param *.node[*].helper.nCars 8
param *.node[*].helper.nLanes 1
param *.node[*].helper.platoonSize 8
param *.node[*].helper_type "\"PositionHelper\""
param *.node[*].mobility.x 0
param *.node[*].mobility.y 0
param *.node[*].mobility.z 1.895
param *.node[*].prot.attackStart 30s
param *.node[*].prot.attackerType 1
param *.node[*].prot.attackingNode 3
param *.node[*].prot.beaconingInterval 0.1s
param *.node[*].prot.fakeAcc "(1 == 4)"
param *.node[*].prot.fakePos "(1 == 2)"
param *.node[*].prot.fakeSpeed "(1 == 3)"
param *.node[*].prot.maliciousAcc "-30 mpss"
param *.node[*].prot.maliciousSpeed 150kmph
param *.node[*].prot.packetSize 200
param *.node[*].prot.priority 2
param *.node[*].prot.shiftX "7 m"
param *.node[*].prot.useControllerAcceleration true
param *.node[*].protocol_type "\"SimplePlatooningBeaconing\""
param *.node[*].scenario.accHeadway 0.1s
param *.node[*].scenario.caccC1 0.5
param *.node[*].scenario.caccOmegaN "0.2 Hz"
param *.node[*].scenario.caccSpacing 5m
param *.node[*].scenario.caccXi 1
param *.node[*].scenario.controller "\"CONSENSUS\""
param *.node[*].scenario.engineTau "0.5 s"
param *.node[*].scenario.leaderHeadway 1.2s
param *.node[*].scenario.leaderOscillationFrequency "0.2 Hz"
param *.node[*].scenario.leaderSpeed 150kmph
param *.node[*].scenario.oscillationAmplitude "10 kmph"
param *.node[*].scenario.ploegH 0.5s
param *.node[*].scenario.ploegKd 0.7
param *.node[*].scenario.ploegKp 0.2
param *.node[*].scenario.startOscillating "5 s"
param *.node[*].scenario.useRealisticEngine false
param *.node[*].scenario_type "\"SinusoidalScenario\""
param *.node[*].unicast.packetLossRate 0
param *.obstacles.debug false
param *.playgroundSizeX 65000m
param *.playgroundSizeY 25000m
param *.playgroundSizeZ 50m
param *.world.use2D false
param *.world.useTorus false

vector 0  scenario.node[0].appl  distance  ETV
vector 1  scenario.node[0].appl  relativeSpeed  ETV
vector 2  scenario.node[0].appl  nodeId  ETV
vector 6  scenario.node[0].appl  acceleration  ETV
vector 7  scenario.node[0].appl  controllerAcceleration  ETV
vector 3  scenario.node[0].appl  speed  ETV
vector 4  scenario.node[0].appl  posx  ETV
vector 5  scenario.node[0].appl  posy  ETV
vector 22  scenario.node[1].appl  distance  ETV
vector 23  scenario.node[1].appl  relativeSpeed  ETV
vector 24  scenario.node[1].appl  nodeId  ETV
vector 28  scenario.node[1].appl  acceleration  ETV
vector 29  scenario.node[1].appl  controllerAcceleration  ETV
vector 25  scenario.node[1].appl  speed  ETV
vector 26  scenario.node[1].appl  posx  ETV
vector 27  scenario.node[1].appl  posy  ETV
vector 44  scenario.node[2].appl  distance  ETV
vector 45  scenario.node[2].appl  relativeSpeed  ETV
vector 46  scenario.node[2].appl  nodeId  ETV
vector 50  scenario.node[2].appl  acceleration  ETV
vector 51  scenario.node[2].appl  controllerAcceleration  ETV
vector 47  scenario.node[2].appl  speed  ETV
vector 48  scenario.node[2].appl  posx  ETV
vector 49  scenario.node[2].appl  posy  ETV
vector 66  scenario.node[3].appl  distance  ETV
vector 67  scenario.node[3].appl  relativeSpeed  ETV
vector 68  scenario.node[3].appl  nodeId  ETV
vector 72  scenario.node[3].appl  acceleration  ETV
vector 73  scenario.node[3].appl  controllerAcceleration  ETV
vector 69  scenario.node[3].appl  speed  ETV
vector 70  scenario.node[3].appl  posx  ETV
vector 71  scenario.node[3].appl  posy  ETV
vector 88  scenario.node[4].appl  distance  ETV
vector 89  scenario.node[4].appl  relativeSpeed  ETV
vector 90  scenario.node[4].appl  nodeId  ETV
vector 94  scenario.node[4].appl  acceleration  ETV
vector 95  scenario.node[4].appl  controllerAcceleration  ETV
vector 91  scenario.node[4].appl  speed  ETV
vector 92  scenario.node[4].appl  posx  ETV
vector 93  scenario.node[4].appl  posy  ETV
vector 110  scenario.node[5].appl  distance  ETV
vector 111  scenario.node[5].appl  relativeSpeed  ETV
vector 112  scenario.node[5].appl  nodeId  ETV
vector 116  scenario.node[5].appl  acceleration  ETV
vector 117  scenario.node[5].appl  controllerAcceleration  ETV
vector 113  scenario.node[5].appl  speed  ETV
vector 114  scenario.node[5].appl  posx  ETV
vector 115  scenario.node[5].appl  posy  ETV
vector 132  scenario.node[6].appl  distance  ETV
vector 133  scenario.node[6].appl  relativeSpeed  ETV
vector 134  scenario.node[6].appl  nodeId  ETV
vector 138  scenario.node[6].appl  acceleration  ETV
vector 139  scenario.node[6].appl  controllerAcceleration  ETV
vector 135  scenario.node[6].appl  speed  ETV
vector 136  scenario.node[6].appl  posx  ETV
vector 137  scenario.node[6].appl  posy  ETV
vector 154  scenario.node[7].appl  distance  ETV
vector 155  scenario.node[7].appl  relativeSpeed  ETV
vector 156  scenario.node[7].appl  nodeId  ETV
vector 160  scenario.node[7].appl  acceleration  ETV
vector 161  scenario.node[7].appl  controllerAcceleration  ETV
vector 157  scenario.node[7].appl  speed  ETV
vector 158  scenario.node[7].appl  posx  ETV
vector 159  scenario.node[7].appl  posy  ETV
vector 35  scenario.node[1].prot  leaderDelay  ETV
vector 33  scenario.node[1].prot  leaderDelayId  ETV
vector 36  scenario.node[1].prot  frontDelay  ETV
vector 34  scenario.node[1].prot  frontDelayId  ETV
vector 57  scenario.node[2].prot  leaderDelay  ETV
vector 55  scenario.node[2].prot  leaderDelayId  ETV
vector 79  scenario.node[3].prot  leaderDelay  ETV
vector 77  scenario.node[3].prot  leaderDelayId  ETV
vector 101  scenario.node[4].prot  leaderDelay  ETV
vector 99  scenario.node[4].prot  leaderDelayId  ETV
vector 123  scenario.node[5].prot  leaderDelay  ETV
vector 121  scenario.node[5].prot  leaderDelayId  ETV
vector 145  scenario.node[6].prot  leaderDelay  ETV
vector 143  scenario.node[6].prot  leaderDelayId  ETV
vector 167  scenario.node[7].prot  leaderDelay  ETV
vector 165  scenario.node[7].prot  leaderDelayId  ETV
vector 168  scenario.node[7].prot  frontDelay  ETV
vector 166  scenario.node[7].prot  frontDelayId  ETV
vector 58  scenario.node[2].prot  frontDelay  ETV
vector 56  scenario.node[2].prot  frontDelayId  ETV
vector 124  scenario.node[5].prot  frontDelay  ETV
vector 122  scenario.node[5].prot  frontDelayId  ETV
vector 80  scenario.node[3].prot  frontDelay  ETV
vector 78  scenario.node[3].prot  frontDelayId  ETV
vector 146  scenario.node[6].prot  frontDelay  ETV
vector 144  scenario.node[6].prot  frontDelayId  ETV
vector 102  scenario.node[4].prot  frontDelay  ETV
vector 100  scenario.node[4].prot  frontDelayId  ETV
vector 8  scenario.node[0].prot  nodeId  ETV
vector 9  scenario.node[0].prot  busyTime  ETV
vector 10  scenario.node[0].prot  collisions  ETV
vector 30  scenario.node[1].prot  nodeId  ETV
vector 31  scenario.node[1].prot  busyTime  ETV
vector 32  scenario.node[1].prot  collisions  ETV
vector 52  scenario.node[2].prot  nodeId  ETV
vector 53  scenario.node[2].prot  busyTime  ETV
vector 54  scenario.node[2].prot  collisions  ETV
vector 74  scenario.node[3].prot  nodeId  ETV
vector 75  scenario.node[3].prot  busyTime  ETV
vector 76  scenario.node[3].prot  collisions  ETV
vector 96  scenario.node[4].prot  nodeId  ETV
vector 97  scenario.node[4].prot  busyTime  ETV
vector 98  scenario.node[4].prot  collisions  ETV
vector 118  scenario.node[5].prot  nodeId  ETV
vector 119  scenario.node[5].prot  busyTime  ETV
vector 120  scenario.node[5].prot  collisions  ETV
vector 140  scenario.node[6].prot  nodeId  ETV
vector 141  scenario.node[6].prot  busyTime  ETV
vector 142  scenario.node[6].prot  collisions  ETV
vector 162  scenario.node[7].prot  nodeId  ETV
vector 163  scenario.node[7].prot  busyTime  ETV
vector 164  scenario.node[7].prot  collisions  ETV
7	11269 13862 232 328174 1.11 59.91 589 -1.5 1.5 -14.445978168666 993.24092374633
6	25131 18591 232 328174 1.11 59.91 589 -1.4722746794739 1.4513434175775 -12.507273387293 675.29835233824
5	43722 12081 232 328174 1.11 59.91 589 36.55 36.55 21527.95 786846.5725
4	55803 17902 232 328174 1.11 59.91 589 409.84595756491 2864.1620901518 965015.13925166 1877302823.248
3	73705 17882 232 328174 1.11 59.91 589 40.376854748618 43.631381416411 24584.394369227 1026576.1694128
1	91587 9725 232 328174 1.11 59.91 589 0 0 0 0
0	101312 10314 232 328174 1.11 59.91 589 -1 -1 -589 589
2	111626 9725 232 328174 1.11 59.91 589 0 0 0 0
10	121351 858 5056 328550 2 60 59 0 0 0 0
9	122209 1559 5056 328550 2 60 59 0.022760199137 0.026262664663 1.545259703934 0.040483626162008
8	123768 799 5056 328550 2 60 59 0 0 0 0
29	124567 20162 233 328175 1.11 59.91 589 -1.9952324547101 1.9887892253498 -12.83302554262 522.93845368756
28	144729 20172 233 328175 1.11 59.91 589 -1.7216163296155 1.7124376207562 -12.569865799772 364.13310858871
27	164901 12670 233 328175 1.11 59.91 589 36.55 36.55 21527.95 786846.5725
26	177571 18496 233 328175 1.11 59.91 589 357.51261405945 2775.1650560958 928874.26303065 1752503712.5525
25	196067 18495 233 328175 1.11 59.91 589 40.169024754268 43.622330245001 24217.75169784 996294.30530366
23	214562 19170 233 328175 1.11 59.91 589 -1.222742083344 2.5448743087196 366.7677441207 899.31456872111
22	233732 18512 233 328175 1.11 59.91 589 47.287698901939 84.996398555537 33777.543367578 2017972.3286354
24	252244 10314 233 328175 1.11 59.91 589 1 1 589 589
36	262558 23675 836 328222 1.26956171326 59.969566915328 588 0.099989537834 0.100002705276 58.800007740763 5.8800015638894
35	286233 23675 836 328222 1.26956171326 59.969566915328 588 0.099989537834 0.100002705276 58.800007740763 5.8800015638894
34	309908 16098 836 328222 1.26956171326 59.969566915328 588 1 1 588 588
33	326006 16098 836 328222 1.26956171326 59.969566915328 588 1 1 588 588
32	342104 858 5057 328551 2 60 59 0 0 0 0
31	342962 1616 5057 328551 2 60 59 0.022760373702 0.02626266913 1.545260000797 0.040483640528942
30	344578 858 5057 328551 2 60 59 1 1 59 59
51	345436 20084 234 328176 1.11 59.91 589 -1.4546519030185 1.4426050728179 -12.628974211635 288.70623283173
50	365520 20139 234 328176 1.11 59.91 589 -1.2932235277297 1.2693223637882 -12.571277307242 205.82831385648
49	385659 12670 234 328176 1.11 59.91 589 36.55 36.55 21527.95 786846.5725
48	398329 18485 234 328176 1.11 59.91 589 305.17930107117 2723.8357121913 898269.01548317 1657953269.8199
47	416814 18492 234 328176 1.11 59.91 589 40.411205345075 43.289365679684 24227.791366058 996998.79922201
45	435306 20176 234 328176 1.11 59.91 589 -0.38765529323005 0.3586125624866 -9.9139695593482 17.133874513644
44	455482 18493 234 328176 1.11 59.91 589 47.329346676502 48.985925020644 28249.448340854 1355062.8297058
46	473975 10314 234 328176 1.11 59.91 589 2 2 1178 2356
58	484289 23686 1046 328426 1.299194982607 59.999187143027 588 0.09998953732 0.100002705234 58.799994699115 5.87999895566
57	507975 23691 842 328228 1.269561887825 59.969567086544 588 0.099989537711 0.100002705276 58.800007737414 5.8800015632196
56	531666 16110 1046 328426 1.299194982607 59.999187143027 588 2 2 1176 2352
55	547776 16102 842 328228 1.269561887825 59.969567086544 588 2 2 1176 2352
54	563878 858 5058 328552 2 60 59 0 0 0 0
53	564736 1616 5058 328552 2 60 59 0.022760548267 0.026262669125 1.545260172013 0.040483648299475
52	566352 858 5058 328552 2 60 59 2 2 118 236
73	567210 19977 235 328177 1.11 59.91 589 -1.5632964487638 1.5516948308733 -13.202204701565 327.56579994988
72	587187 20019 235 328177 1.11 59.91 589 -1.3303287327574 1.3177790455032 -12.574341170365 220.70082793396
71	607206 12670 235 328177 1.11 59.91 589 36.55 36.55 21527.95 786846.5725
70	619876 18490 235 328177 1.11 59.91 589 252.84595756531 2672.5037956089 867628.86445112 1566449202.1696
69	638366 18491 235 328177 1.11 59.91 589 40.411979256454 43.232131815296 24237.805896918 997816.19221765
67	656857 20285 235 328177 1.11 59.91 589 -0.13209164535664 0.12654766470038 -9.8888180872311 1.8050555500428
66	677142 18498 235 328177 1.11 59.91 589 47.331932060604 48.657122419685 28284.351322665 1358381.2240347
68	695640 10314 235 328177 1.11 59.91 589 3 3 1767 5301
80	705954 23711 1180 328575 1.300203855433 60.000208999212 588 0.09998953743 0.100002705243 58.799994682474 5.8799989523326
79	729665 23703 848 328234 1.269562062391 59.969567257769 588 0.099989537721 0.100002705275 58.800007734073 5.8800015625514
78	753368 16132 1180 328575 1.300203855433 60.000208999212 588 3 3 1764 5292
77	769500 16119 848 328234 1.269562062391 59.969567257769 588 3 3 1764 5292
76	785619 858 5059 328553 2 60 59 0 0 0 0
75	786477 1613 5059 328553 2 60 59 0.022759373702 0.026262669144 1.545259000788 0.040483595008709
74	788090 858 5059 328553 2 60 59 3 3 177 531
95	788948 19884 236 328178 1.11 59.91 589 -1.5168218380692 1.5106739197956 -13.363708694112 311.62060283959
94	808832 19935 236 328178 1.11 59.91 589 -1.2928256573161 1.2843670426989 -12.553576990638 210.15519708185
93	828767 12670 236 328178 1.11 59.91 589 36.55 36.55 21527.95 786846.5725
92	841437 18500 236 328178 1.11 59.91 589 200.51262931824 2621.1626383112 836957.33248997 1478005991.9802
91	859937 18499 236 328178 1.11 59.91 589 40.414748143417 43.196297898013 24247.728531851 998612.30160551
89	878436 20290 236 328178 1.11 59.91 589 -0.076217462915452 0.053887700787094 -9.7968915217537 0.72539325063063
88	898726 18492 236 328178 1.11 59.91 589 47.341212675498 48.564908756494 28315.730413844 1361373.6447806
90	917218 10314 236 328178 1.11 59.91 589 4 4 2356 9424
102	927532 24273 1312 328707 1.306022728259 60.006066855641 588 0.099898548004 0.100093683207 58.799981666077 5.8799974970081
101	951805 24316 854 328240 1.269562236956 59.969567429024 588 0.09998953771 0.100002705274 58.800007730763 5.8800015618894
100	976121 16700 1312 328707 1.306022728259 60.006066855641 588 4 4 2352 9408
99	992821 16126 854 328240 1.269562236956 59.969567429024 588 4 4 2352 9408
98	1008947 858 5060 328554 2 60 59 0 0 0 0
97	1009805 1616 5060 328554 2 60 59 0.022760199137 0.026262669194 1.545259829533 0.040483632755934
96	1011421 858 5060 328554 2 60 59 4 4 236 944
117	1012279 20492 237 328179 1.11 59.91 589 -1.4359256807138 1.4349058204017 -11.93557710851 280.00496522967
116	1032771 20502 237 328179 1.11 59.91 589 -1.2576586734404 1.2513938635429 -12.474205338424 198.60306452542
115	1053273 13259 237 328179 1.11 59.91 589 36.55 36.55 21527.95 786846.5725
114	1066532 19098 237 328179 1.11 59.91 589 148.17929344177 2569.7977732195 806257.95042925 1392639557.7617
113	1085630 19089 237 328179 1.11 59.91 589 40.42184066704 43.160582089582 24257.415548754 999388.20966232
111	1104719 20862 237 328179 1.11 59.91 589 -0.061227424219062 0.053704772201556 -9.56148113313 0.61687542559408
110	1125581 19089 237 328179 1.11 59.91 589 47.365006942172 48.532116873291 28343.575801064 1364029.2627672
112	1144670 10903 237 328179 1.11 59.91 589 5 5 2945 14725
124	1155573 24289 1112 328498 1.299595506303 59.99960065684 588 0.099989537536 0.100002705241 58.800007689232 5.8800015535823
123	1179862 24302 860 328246 1.269562411521 59.969567600357 588 0.099989537696 0.100002705272 58.800007727531 5.880001561243
122	1204164 16715 1112 328498 1.299595506303 59.99960065684 588 5 5 2940 14700
121	1220879 16713 860 328246 1.269562411521 59.969567600357 588 5 5 2940 14700
120	1237592 917 5061 328555 2 60 59 0 0 0 0
119	1238509 1674 5061 328555 2 60 59 0.022759024571 0.026262669286 1.545258658201 0.040483579460387
118	1240183 917 5061 328555 2 60 59 5 5 295 1475
139	1241100 20425 238 328180 1.11 59.91 589 -1.4400171101092 1.4373872422913 -13.539258051935 281.76871063252
138	1261525 20454 238 328180 1.11 59.91 589 -1.2276841333929 1.2238504551767 -12.358271977789 189.81336901528
137	1281979 13259 238 328180 1.11 59.91 589 36.55 36.55 21527.95 786846.5725
136	1295238 19073 238 328180 1.11 59.91 589 95.845957565308 2518.3864843819 775534.44247939 1310367989.1947
135	1314311 19082 238 328180 1.11 59.91 589 40.435744855578 43.126102771387 24266.640955188 1000128.180847
133	1333393 20851 238 328180 1.11 59.91 589 -0.051025281981417 0.037593179486272 -9.100664380229 0.49467955655565
132	1354244 19089 238 328180 1.11 59.91 589 47.411566921387 48.496995644279 28367.692457981 1366329.3338072
134	1373333 10903 238 328180 1.11 59.91 589 6 6 3534 21204
146	1384236 24295 1249 328644 1.305609379129 60.005614513284 588 0.099989537517 0.100002705234 58.80000767285 5.880001550306
145	1408531 24303 866 328252 1.269562586086 59.969567771845 588 0.099989537685 0.100002705267 58.800007724454 5.8800015606276
144	1432834 16707 1249 328644 1.305609379129 60.005614513284 588 6 6 3528 21168
143	1449541 16702 866 328252 1.269562586086 59.969567771845 588 6 6 3528 21168
142	1466243 917 5062 328556 2 60 59 0 0 0 0
141	1467160 1674 5062 328556 2 60 59 0.022759850006 0.026262669413 1.545259486715 0.040483617194907
140	1468834 917 5062 328556 2 60 59 6 6 354 2124
161	1469751 20504 239 328181 1.11 59.91 589 -1.3694254265375 1.368043650269 -11.223970732896 254.41614420623
160	1490255 20448 239 328181 1.11 59.91 589 -1.1973871254234 1.1938057282855 -12.124954269883 180.5773420235
159	1510703 13259 239 328181 1.11 59.91 589 36.55 36.55 21527.95 786846.5725
158	1523962 19087 239 328181 1.11 59.91 589 43.512624549866 2466.9031819873 744791.42826792 1231214001.6009
157	1543049 19099 239 328181 1.11 59.91 589 40.457494752306 43.091963641343 24275.148635065 1000809.9640448
155	1562148 20804 239 328181 1.11 59.91 589 -0.043648418206885 0.036827688867042 -8.3840971576477 0.42988016968912
154	1582952 19088 239 328181 1.11 59.91 589 47.483737392486 48.475480425161 28387.184365069 1368188.4387915
156	1602040 10903 239 328181 1.11 59.91 589 7 7 4123 28861
168	1612943 24294 980 328366 1.292099109781 59.99210428702 588 0.099989537652 0.100002705245 58.799994715934 5.8799989590249
167	1637237 24304 872 328258 1.269562760651 59.969567943571 588 0.099989537674 0.10000270526 58.800007721615 5.8800015600598
166	1661541 16717 980 328366 1.292099109781 59.99210428702 588 7 7 4116 28812
165	1678258 16716 872 328258 1.269562760651 59.969567943571 588 7 7 4116 28812
164	1694974 917 5063 328557 2 60 59 0 0 0 0
163	1695891 1673 5063 328557 2 60 59 0.022759675441 0.026262669552 1.545259314991 0.040483609397945
162	1697564 917 5063 328557 2 60 59 7 7 413 2891
