file 1687774 1501510170                                         
version 2
run SinusoidalJammingAttack-87-20170731-16:08:58-103914
attr CACCSpacing 20
attr attackAcc -30
attr attackPos 7
attr attackSpeed 150
attr attackStart 30
attr attacker 1
attr beaconInterval 0.1
attr configname SinusoidalJammingAttack
attr controller 1
attr datetime 20170731-16:08:58
attr experiment SinusoidalJammingAttack
attr fakeAcc "(1 == 4)"
attr fakePos "(1 == 2)"
attr fakeSpeed "(1 == 3)"
attr inifile omnetpp_87.ini
attr iterationvars "$leaderSpeed=120, $controller=1, $CACCSpacing=20, $sController=\"CACC\", $attacker=1, $attackStart=30, $attackSpeed=150, $attackPos=7, $attackAcc=-30, $0=20, $1=0, $nCars=8, $platoonSize=8, $nLanes=1, $beaconInterval=0.1, $priority=2, $packetSize=200, $ploegH=0.5, $leaderHeadway=1.2, $fakeSpeed=(1 == 3), $fakeAcc=(1 == 4), $fakePos=(1 == 2)"
attr iterationvarsf leaderSpeed=120,controller=1,CACCSpacing=20,sController=CACC,attacker=1,attackStart=30,attackSpeed=150,attackPos=7,attackAcc=-30,20,0,nCars=8,platoonSize=8,nLanes=1,beaconInterval=0.1,priority=2,packetSize=200,ploegH=0.5,leaderHeadway=1.2,fakeSpeed=(1_==_3),fakeAcc=(1_==_4),fakePos=(1_==_2)-
attr leaderHeadway 1.2
attr leaderSpeed 120
attr measurement "$leaderSpeed=120, $controller=1, $CACCSpacing=20, $sController=\"CACC\", $attacker=1, $attackStart=30, $attackSpeed=150, $attackPos=7, $attackAcc=-30, $0=20, $1=0, $nCars=8, $platoonSize=8, $nLanes=1, $beaconInterval=0.1, $priority=2, $packetSize=200, $ploegH=0.5, $leaderHeadway=1.2, $fakeSpeed=(1 == 3), $fakeAcc=(1 == 4), $fakePos=(1 == 2)"
attr nCars 8
attr nLanes 1
attr network scenario
attr packetSize 200
attr platoonSize 8
attr ploegH 0.5
attr priority 2
attr processid 103914
attr repetition 2
attr replication #2
attr resultdir results
attr runnumber 87
attr sController "\"CACC\""
attr seedset 2
param **.coreDebug false
param **.debug false
param **.headway 0.1s
param **.numberOfCars 8
param **.numberOfCarsPerPlatoon 8
param **.numberOfLanes 1
param **.numericController 1
param **.traffic.nCars 8
param **.traffic.nLanes 1
param **.traffic.platoonInsertDistance 20m
param **.traffic.platoonInsertHeadway 0s
param **.traffic.platoonInsertSpeed 120kmph
param **.traffic.platoonInsertTime "1 s"
param **.traffic.platoonLeaderHeadway 1.2s
param **.traffic.platoonSize 8
param **.traffic.platooningVType "\"vtypeauto\""
param **.traffic_type "\"PlatoonsTrafficManager\""
param *.**.nic.mac1609_4.bitrate 6Mbps
param *.**.nic.mac1609_4.txPower 100mW
param *.**.nic.mac1609_4.useServiceChannel false
param *.**.nic.phy80211p.analogueModels "xmldoc(\"config.xml\")"
param *.**.nic.phy80211p.decider "xmldoc(\"config.xml\")"
param *.**.nic.phy80211p.maxTXPower 100mW
param *.**.nic.phy80211p.sensitivity -94dBm
param *.**.nic.phy80211p.thermalNoise -95dBm
param *.**.nic.phy80211p.usePropagationDelay true
param *.**.nic.phy80211p.useThermalNoise true
param *.annotations.draw false
param *.connectionManager.alpha 2.0
param *.connectionManager.carrierFrequency "5.890e9 Hz"
param *.connectionManager.pMax 100mW
param *.connectionManager.sat -94dBm
param *.connectionManager.sendDirect true
param *.manager.autoShutdown true
param *.manager.commandLine "\"sumo --remote-port $port --seed $seed --configuration-file $configFile\""
param *.manager.configFile "\"./sumocfg/freeway.sumo.cfg\""
param *.manager.host "\"localhost\""
param *.manager.margin 25
param *.manager.moduleDisplayString "\"\""
param *.manager.moduleName "\"node\""
param *.manager.moduleType "\"Car\""
param *.manager.updateInterval 0.01s
param *.node[*].appl.attackStart 30s
param *.node[*].appl.attackerType 1
param *.node[*].appl.simulationDuration "60 s"
param *.node[*].appl_type "\"SimplePlatooningApp\""
param *.node[*].helper.nCars 8
param *.node[*].helper.nLanes 1
param *.node[*].helper.platoonSize 8
param *.node[*].helper_type "\"PositionHelper\""
param *.node[*].mobility.x 0
param *.node[*].mobility.y 0
param *.node[*].mobility.z 1.895
param *.node[*].prot.attackStart 30s
param *.node[*].prot.attackerType 1
param *.node[*].prot.attackingNode 3
param *.node[*].prot.beaconingInterval 0.1s
param *.node[*].prot.fakeAcc "(1 == 4)"
param *.node[*].prot.fakePos "(1 == 2)"
param *.node[*].prot.fakeSpeed "(1 == 3)"
param *.node[*].prot.maliciousAcc "-30 mpss"
param *.node[*].prot.maliciousSpeed 150kmph
param *.node[*].prot.packetSize 200
param *.node[*].prot.priority 2
param *.node[*].prot.shiftX "7 m"
param *.node[*].prot.useControllerAcceleration true
param *.node[*].protocol_type "\"SimplePlatooningBeaconing\""
param *.node[*].scenario.accHeadway 0.1s
param *.node[*].scenario.caccC1 0.5
param *.node[*].scenario.caccOmegaN "0.2 Hz"
param *.node[*].scenario.caccSpacing 20m
param *.node[*].scenario.caccXi 1
param *.node[*].scenario.controller "\"CACC\""
param *.node[*].scenario.engineTau "0.5 s"
param *.node[*].scenario.leaderHeadway 1.2s
param *.node[*].scenario.leaderOscillationFrequency "0.2 Hz"
param *.node[*].scenario.leaderSpeed 120kmph
param *.node[*].scenario.oscillationAmplitude "10 kmph"
param *.node[*].scenario.ploegH 0.5s
param *.node[*].scenario.ploegKd 0.7
param *.node[*].scenario.ploegKp 0.2
param *.node[*].scenario.startOscillating "5 s"
param *.node[*].scenario.useRealisticEngine false
param *.node[*].scenario_type "\"SinusoidalScenario\""
param *.node[*].unicast.packetLossRate 0
param *.obstacles.debug false
param *.playgroundSizeX 65000m
param *.playgroundSizeY 25000m
param *.playgroundSizeZ 50m
param *.world.use2D false
param *.world.useTorus false

vector 0  scenario.node[0].appl  distance  ETV
vector 1  scenario.node[0].appl  relativeSpeed  ETV
vector 2  scenario.node[0].appl  nodeId  ETV
vector 6  scenario.node[0].appl  acceleration  ETV
vector 7  scenario.node[0].appl  controllerAcceleration  ETV
vector 3  scenario.node[0].appl  speed  ETV
vector 4  scenario.node[0].appl  posx  ETV
vector 5  scenario.node[0].appl  posy  ETV
vector 22  scenario.node[1].appl  distance  ETV
vector 23  scenario.node[1].appl  relativeSpeed  ETV
vector 24  scenario.node[1].appl  nodeId  ETV
vector 28  scenario.node[1].appl  acceleration  ETV
vector 29  scenario.node[1].appl  controllerAcceleration  ETV
vector 25  scenario.node[1].appl  speed  ETV
vector 26  scenario.node[1].appl  posx  ETV
vector 27  scenario.node[1].appl  posy  ETV
vector 44  scenario.node[2].appl  distance  ETV
vector 45  scenario.node[2].appl  relativeSpeed  ETV
vector 46  scenario.node[2].appl  nodeId  ETV
vector 50  scenario.node[2].appl  acceleration  ETV
vector 51  scenario.node[2].appl  controllerAcceleration  ETV
vector 47  scenario.node[2].appl  speed  ETV
vector 48  scenario.node[2].appl  posx  ETV
vector 49  scenario.node[2].appl  posy  ETV
vector 66  scenario.node[3].appl  distance  ETV
vector 67  scenario.node[3].appl  relativeSpeed  ETV
vector 68  scenario.node[3].appl  nodeId  ETV
vector 72  scenario.node[3].appl  acceleration  ETV
vector 73  scenario.node[3].appl  controllerAcceleration  ETV
vector 69  scenario.node[3].appl  speed  ETV
vector 70  scenario.node[3].appl  posx  ETV
vector 71  scenario.node[3].appl  posy  ETV
vector 88  scenario.node[4].appl  distance  ETV
vector 89  scenario.node[4].appl  relativeSpeed  ETV
vector 90  scenario.node[4].appl  nodeId  ETV
vector 94  scenario.node[4].appl  acceleration  ETV
vector 95  scenario.node[4].appl  controllerAcceleration  ETV
vector 91  scenario.node[4].appl  speed  ETV
vector 92  scenario.node[4].appl  posx  ETV
vector 93  scenario.node[4].appl  posy  ETV
vector 110  scenario.node[5].appl  distance  ETV
vector 111  scenario.node[5].appl  relativeSpeed  ETV
vector 112  scenario.node[5].appl  nodeId  ETV
vector 116  scenario.node[5].appl  acceleration  ETV
vector 117  scenario.node[5].appl  controllerAcceleration  ETV
vector 113  scenario.node[5].appl  speed  ETV
vector 114  scenario.node[5].appl  posx  ETV
vector 115  scenario.node[5].appl  posy  ETV
vector 132  scenario.node[6].appl  distance  ETV
vector 133  scenario.node[6].appl  relativeSpeed  ETV
vector 134  scenario.node[6].appl  nodeId  ETV
vector 138  scenario.node[6].appl  acceleration  ETV
vector 139  scenario.node[6].appl  controllerAcceleration  ETV
vector 135  scenario.node[6].appl  speed  ETV
vector 136  scenario.node[6].appl  posx  ETV
vector 137  scenario.node[6].appl  posy  ETV
vector 154  scenario.node[7].appl  distance  ETV
vector 155  scenario.node[7].appl  relativeSpeed  ETV
vector 156  scenario.node[7].appl  nodeId  ETV
vector 160  scenario.node[7].appl  acceleration  ETV
vector 161  scenario.node[7].appl  controllerAcceleration  ETV
vector 157  scenario.node[7].appl  speed  ETV
vector 158  scenario.node[7].appl  posx  ETV
vector 159  scenario.node[7].appl  posy  ETV
vector 168  scenario.node[7].prot  frontDelay  ETV
vector 166  scenario.node[7].prot  frontDelayId  ETV
vector 146  scenario.node[6].prot  frontDelay  ETV
vector 144  scenario.node[6].prot  frontDelayId  ETV
vector 35  scenario.node[1].prot  leaderDelay  ETV
vector 33  scenario.node[1].prot  leaderDelayId  ETV
vector 36  scenario.node[1].prot  frontDelay  ETV
vector 34  scenario.node[1].prot  frontDelayId  ETV
vector 57  scenario.node[2].prot  leaderDelay  ETV
vector 55  scenario.node[2].prot  leaderDelayId  ETV
vector 79  scenario.node[3].prot  leaderDelay  ETV
vector 77  scenario.node[3].prot  leaderDelayId  ETV
vector 101  scenario.node[4].prot  leaderDelay  ETV
vector 99  scenario.node[4].prot  leaderDelayId  ETV
vector 123  scenario.node[5].prot  leaderDelay  ETV
vector 121  scenario.node[5].prot  leaderDelayId  ETV
vector 145  scenario.node[6].prot  leaderDelay  ETV
vector 143  scenario.node[6].prot  leaderDelayId  ETV
vector 167  scenario.node[7].prot  leaderDelay  ETV
vector 165  scenario.node[7].prot  leaderDelayId  ETV
vector 102  scenario.node[4].prot  frontDelay  ETV
vector 100  scenario.node[4].prot  frontDelayId  ETV
vector 80  scenario.node[3].prot  frontDelay  ETV
vector 78  scenario.node[3].prot  frontDelayId  ETV
vector 124  scenario.node[5].prot  frontDelay  ETV
vector 122  scenario.node[5].prot  frontDelayId  ETV
vector 58  scenario.node[2].prot  frontDelay  ETV
vector 56  scenario.node[2].prot  frontDelayId  ETV
vector 8  scenario.node[0].prot  nodeId  ETV
vector 9  scenario.node[0].prot  busyTime  ETV
vector 10  scenario.node[0].prot  collisions  ETV
vector 30  scenario.node[1].prot  nodeId  ETV
vector 31  scenario.node[1].prot  busyTime  ETV
vector 32  scenario.node[1].prot  collisions  ETV
vector 52  scenario.node[2].prot  nodeId  ETV
vector 53  scenario.node[2].prot  busyTime  ETV
vector 54  scenario.node[2].prot  collisions  ETV
vector 74  scenario.node[3].prot  nodeId  ETV
vector 75  scenario.node[3].prot  busyTime  ETV
vector 76  scenario.node[3].prot  collisions  ETV
vector 96  scenario.node[4].prot  nodeId  ETV
vector 97  scenario.node[4].prot  busyTime  ETV
vector 98  scenario.node[4].prot  collisions  ETV
vector 118  scenario.node[5].prot  nodeId  ETV
vector 119  scenario.node[5].prot  busyTime  ETV
vector 120  scenario.node[5].prot  collisions  ETV
vector 140  scenario.node[6].prot  nodeId  ETV
vector 141  scenario.node[6].prot  busyTime  ETV
vector 142  scenario.node[6].prot  collisions  ETV
vector 162  scenario.node[7].prot  nodeId  ETV
vector 163  scenario.node[7].prot  busyTime  ETV
vector 164  scenario.node[7].prot  collisions  ETV
7	11240 13859 232 328174 1.11 59.91 589 -1.5 1.5 -14.445953361693 993.24092335941
6	25099 18579 232 328174 1.11 59.91 589 -1.4722746795918 1.4513434175775 -12.507247963452 675.29835166926
5	43678 12081 232 328174 1.11 59.91 589 36.55 36.55 21527.95 786846.5725
4	55759 17899 232 328174 1.11 59.91 589 206.22662849466 2170.5427588145 700778.353104 1023450692.4243
3	73658 17913 232 328174 1.11 59.91 589 32.043521415285 35.298048086563 19676.061011579 657739.0394163
1	91571 9725 232 328174 1.11 59.91 589 0 0 0 0
0	101296 10314 232 328174 1.11 59.91 589 -1 -1 -589 589
2	111610 9725 232 328174 1.11 59.91 589 0 0 0 0
10	121335 858 5168 328662 2 60 59 0 0 0 0
9	122193 1154 5168 328662 2 60 59 0.023297 0.02625 1.545797 0.040508375209
8	123347 799 5168 328662 2 60 59 0 0 0 0
29	124146 18887 233 328175 1.11 59.91 589 -1.5201885288689 1.5215379190836 0.4443099961289 464.66448856598
28	143033 19637 233 328175 1.11 59.91 589 -1.4845166945477 1.4492363474488 0.69717254573618 317.49635276444
27	162670 12670 233 328175 1.11 59.91 589 36.55 36.55 21527.95 786846.5725
26	175340 18514 233 328175 1.11 59.91 589 182.22662849426 2155.9270588552 688276.62378414 996222369.66384
25	193854 18495 233 328175 1.11 59.91 589 32.031576889461 35.29378902846 19770.362621642 663888.02608153
23	212349 19676 233 328175 1.11 59.91 589 -2.1821126954508 1.2594099191302 -94.176537583004 315.09204093587
22	232025 18504 233 328175 1.11 59.91 589 9.4958362465861 22.287710890039 10147.615352065 184136.43224807
24	250529 10314 233 328175 1.11 59.91 589 1 1 589 589
36	260843 23694 1034 328420 1.262218481716 59.962213315696 588 0.099999245002 0.10001276862 58.799994595198 5.8799989216525
35	284537 23694 1034 328420 1.262218481716 59.962213315696 588 0.099999245002 0.10001276862 58.799994595198 5.8799989216525
34	308231 16112 1034 328420 1.262218481716 59.962213315696 588 1 1 588 588
33	324343 16112 1034 328420 1.262218481716 59.962213315696 588 1 1 588 588
32	340455 858 5169 328663 2 60 59 0 0 0 0
31	341313 1213 5169 328663 2 60 59 0.023296 0.02625 1.545796 0.040508328616
30	342526 858 5169 328663 2 60 59 1 1 59 59
51	343384 19606 234 328176 1.11 59.91 589 -1.4917898302356 1.4990053074392 1.4088807267906 451.32533569557
50	362990 19622 234 328176 1.11 59.91 589 -1.4755501940463 1.4415270077009 1.2737396002741 317.80962291725
49	382612 12670 234 328176 1.11 59.91 589 36.55 36.55 21527.95 786846.5725
48	395282 18486 234 328176 1.11 59.91 589 158.22662849426 2139.5592944668 675363.73550563 968000294.73559
47	413768 18515 234 328176 1.11 59.91 589 32.036253130201 35.288527802301 19846.704320449 669083.91920582
45	432283 20064 234 328176 1.11 59.91 589 -0.48074646338491 0.016578181128978 -76.348670532537 26.776901998914
44	452347 18479 234 328176 1.11 59.91 589 12.368875494717 20.045292201133 10558.415112487 194020.97256084
46	470826 10314 234 328176 1.11 59.91 589 2 2 1178 2356
58	481140 23723 1312 328707 1.302598202214 60.002605816817 588 0.099999244722 0.100012763807 58.800007375821 5.8800014779345
57	504863 23698 1040 328426 1.262218561772 59.962213370284 588 0.099999244983 0.100012768609 58.79999456973 5.8799989165589
56	528561 16124 1312 328707 1.302598202214 60.002605816817 588 2 2 1176 2352
55	544685 16111 1040 328426 1.262218561772 59.962213370284 588 2 2 1176 2352
54	560796 858 5170 328664 2 60 59 0 0 0 0
53	561654 1213 5170 328664 2 60 59 0.023297 0.02625 1.545797 0.040508375209
52	562867 858 5170 328664 2 60 59 2 2 118 236
73	563725 19470 235 328177 1.11 59.91 589 -1.5133685678821 1.507835596389 2.1610801279572 464.48180753375
72	583195 19589 235 328177 1.11 59.91 589 -1.4653396754866 1.4362317037076 2.2501175392513 315.74541282929
71	602784 12670 235 328177 1.11 59.91 589 36.55 36.55 21527.95 786846.5725
70	615454 18503 235 328177 1.11 59.91 589 134.22663612366 2122.8417660491 662287.69332329 939792673.02054
69	633957 18488 235 328177 1.11 59.91 589 32.042221033613 35.279582308131 19919.563483513 674077.21477986
67	652445 20171 235 328177 1.11 59.91 589 -0.42590467719059 0.011230183678428 -72.871900460719 22.71246779599
66	672616 18478 235 328177 1.11 59.91 589 12.719517163166 20.035282392355 10721.499365604 198999.2905107
68	691094 10314 235 328177 1.11 59.91 589 3 3 1767 5301
80	701408 23720 1176 328562 1.287874801937 59.987882537516 588 0.099999244884 0.100012763801 58.800007496797 5.8800015021289
79	725128 23692 1046 328432 1.262218641827 59.962213426031 588 0.09999924495 0.100012768605 58.799994545422 5.8799989116973
78	748820 16130 1176 328562 1.287874801937 59.987882537516 588 3 3 1764 5292
77	764950 16112 1046 328432 1.262218641827 59.962213426031 588 3 3 1764 5292
76	781062 858 5171 328665 2 60 59 0 0 0 0
75	781920 1213 5171 328665 2 60 59 0.023297 0.02625 1.545797 0.040508375209
74	783133 858 5171 328665 2 60 59 3 3 177 531
95	783991 19530 236 328178 1.11 59.91 589 -1.4996309125568 1.5 3.528378470193 457.35183671089
94	803521 19576 236 328178 1.11 59.91 589 -1.4560433097571 1.4289148532406 3.6480876965442 313.14219490217
93	823097 12670 236 328178 1.11 59.91 589 36.55 36.55 21527.95 786846.5725
92	835767 18490 236 328178 1.11 59.91 589 110.22663612366 2105.6831282809 649050.94714605 911627432.07945
91	854257 18504 236 328178 1.11 59.91 589 32.04970716322 35.303226332284 19988.026124798 678798.21290295
89	872761 20169 236 328178 1.11 59.91 589 -0.37227779453217 0.011890497963904 -68.485142460282 19.751908168159
88	892930 18472 236 328178 1.11 59.91 589 13.161447925973 20.022255138269 10882.115430059 204093.19419603
90	911402 10314 236 328178 1.11 59.91 589 4 4 2356 9424
102	921716 24282 1108 328494 1.276580721882 59.976588483238 588 0.099999244903 0.100012763824 58.800007522574 5.8800015072843
101	945998 24284 1052 328438 1.262218721883 59.962213483243 588 0.099999244904 0.100012768602 58.799994522578 5.8799989071285
100	970282 16711 1108 328494 1.276580721882 59.976588483238 588 4 4 2352 9408
99	986993 16120 1052 328438 1.262218721883 59.962213483243 588 4 4 2352 9408
98	1003113 858 5172 328666 2 60 59 0 0 0 0
97	1003971 1213 5172 328666 2 60 59 0.023297 0.02625 1.545797 0.040508375209
96	1005184 858 5172 328666 2 60 59 4 4 236 944
117	1006042 19464 237 328179 1.11 59.91 589 -1.508227552324 1.5066950626601 5.0635792626243 465.54230421184
116	1025506 20128 237 328179 1.11 59.91 589 -1.4565901518502 1.4321005803488 5.4210100201225 316.31423432089
115	1045634 13259 237 328179 1.11 59.91 589 36.55 36.55 21527.95 786846.5725
114	1058893 19091 237 328179 1.11 59.91 589 86.22663230896 2087.9898140011 635668.84390485 883562214.07998
113	1077984 19087 237 328179 1.11 59.91 589 32.04669744678 35.521003211742 20051.155279276 683179.53866378
111	1097071 20603 237 328179 1.11 59.91 589 -0.33364478301704 0.032214832095306 -63.165635355027 17.012348196517
110	1117674 19079 237 328179 1.11 59.91 589 13.696879127977 20.019410549262 11027.36582429 208782.51630893
112	1136753 10903 237 328179 1.11 59.91 589 5 5 2945 14725
124	1147656 24296 1244 328630 1.297504962048 59.997512653689 588 0.099999244778 0.100012763424 58.800007452859 5.8800014933399
123	1171952 24289 1058 328444 1.262218801938 59.962213542232 588 0.099999244844 0.100012768598 58.799994501512 5.8799989029153
122	1196241 16711 1244 328630 1.297504962048 59.997512653689 588 5 5 2940 14700
121	1212952 16699 1058 328444 1.262218801938 59.962213542232 588 5 5 2940 14700
120	1229651 917 5173 328667 2 60 59 0 0 0 0
119	1230568 1272 5173 328667 2 60 59 0.023297 0.02625 1.545797 0.040508375209
118	1231840 917 5173 328667 2 60 59 5 5 295 1475
139	1232757 20062 238 328180 1.11 59.91 589 -1.4953972032488 1.49590389485 7.2185562232728 457.38642141654
138	1252819 20101 238 328180 1.11 59.91 589 -1.4603980165511 1.4350229162211 7.4992296426018 318.34684774896
137	1272920 13259 238 328180 1.11 59.91 589 36.55 36.55 21527.95 786846.5725
136	1286179 19073 238 328180 1.11 59.91 589 62.22663230896 2069.7191320351 622155.27526068 855656901.96971
135	1305252 19079 238 328180 1.11 59.91 589 32.043362305001 35.701903986294 20108.52119929 687183.36720188
133	1324331 20810 238 328180 1.11 59.91 589 -0.30874703043292 0.010619141271668 -57.420130114117 14.650882753524
132	1345141 19079 238 328180 1.11 59.91 589 14.274845410082 20.027592273843 11158.715962571 213147.87473569
134	1364220 10903 238 328180 1.11 59.91 589 6 6 3534 21204
146	1375123 24297 970 328356 1.247596081439 59.947591052899 588 0.099999245956 0.100012762725 58.799994732678 5.8799989491522
145	1399420 24303 1064 328450 1.262218881993 59.962213603141 588 0.099999244774 0.100012768601 58.799994482366 5.8799988990861
144	1423723 16707 970 328356 1.247596081439 59.947591052899 588 6 6 3528 21168
143	1440430 16720 1064 328450 1.262218881993 59.962213603141 588 6 6 3528 21168
142	1457150 917 5174 328668 2 60 59 0 0 0 0
141	1458067 1272 5174 328668 2 60 59 0.023297 0.02625 1.545797 0.040508375209
140	1459339 917 5174 328668 2 60 59 6 6 354 2124
161	1460256 20066 239 328181 1.11 59.91 589 -1.4856633853362 1.4866431862894 9.3748828079031 446.08195792305
160	1480322 20087 239 328181 1.11 59.91 589 -1.4555085905279 1.4298755940146 9.7943818740006 316.47325340531
159	1500409 13259 239 328181 1.11 59.91 589 36.55 36.55 21527.95 786846.5725
158	1513668 19080 239 328181 1.11 59.91 589 38.226633262634 2050.8368616294 608529.30134388 827983537.16404
157	1532748 19086 239 328181 1.11 59.91 589 32.04838666084 35.850533332161 20159.778986229 690776.88912901
155	1551834 20854 239 328181 1.11 59.91 589 -0.28682343378449 0.0086296064608504 -51.332779234913 12.316805657389
154	1572688 19095 239 328181 1.11 59.91 589 14.886874897796 20.013502926739 11270.999072538 216947.91627065
156	1591783 10903 239 328181 1.11 59.91 589 7 7 4123 28861
168	1602686 24290 832 328218 1.212137841273 59.912132868061 588 0.099999246172 0.100012772144 58.799994788006 5.8799989602114
167	1626976 24282 1070 328456 1.262218962049 59.962213666088 588 0.099999244698 0.100012768602 58.799994465257 5.8799988956643
166	1651258 16714 832 328218 1.212137841273 59.912132868061 588 7 7 4116 28812
165	1667972 16696 1070 328456 1.262218962049 59.962213666088 588 7 7 4116 28812
164	1684668 917 5175 328669 2 60 59 0 0 0 0
163	1685585 1272 5175 328669 2 60 59 0.023297 0.02625 1.545797 0.040508375209
162	1686857 917 5175 328669 2 60 59 7 7 413 2891
