file 1695418 1501509945                                         
version 2
run SinusoidalJammingAttack-74-20170731-16:05:16-87584
attr CACCSpacing 5
attr attackAcc -30
attr attackPos 7
attr attackSpeed 150
attr attackStart 30
attr attacker 1
attr beaconInterval 0.1
attr configname SinusoidalJammingAttack
attr controller 3
attr datetime 20170731-16:05:16
attr experiment SinusoidalJammingAttack
attr fakeAcc "(1 == 4)"
attr fakePos "(1 == 2)"
attr fakeSpeed "(1 == 3)"
attr inifile omnetpp_74.ini
attr iterationvars "$leaderSpeed=100, $controller=3, $CACCSpacing=5, $sController=\"CONSENSUS\", $attacker=1, $attackStart=30, $attackSpeed=150, $attackPos=7, $attackAcc=-30, $0=15, $1=0.8, $nCars=8, $platoonSize=8, $nLanes=1, $beaconInterval=0.1, $priority=2, $packetSize=200, $ploegH=0.5, $leaderHeadway=1.2, $fakeSpeed=(1 == 3), $fakeAcc=(1 == 4), $fakePos=(1 == 2)"
attr iterationvarsf leaderSpeed=100,controller=3,CACCSpacing=5,sController=CONSENSUS,attacker=1,attackStart=30,attackSpeed=150,attackPos=7,attackAcc=-30,15,0.8,nCars=8,platoonSize=8,nLanes=1,beaconInterval=0.1,priority=2,packetSize=200,ploegH=0.5,leaderHeadway=1.2,fakeSpeed=(1_==_3),fakeAcc=(1_==_4),fakePos=(1_==_2)-
attr leaderHeadway 1.2
attr leaderSpeed 100
attr measurement "$leaderSpeed=100, $controller=3, $CACCSpacing=5, $sController=\"CONSENSUS\", $attacker=1, $attackStart=30, $attackSpeed=150, $attackPos=7, $attackAcc=-30, $0=15, $1=0.8, $nCars=8, $platoonSize=8, $nLanes=1, $beaconInterval=0.1, $priority=2, $packetSize=200, $ploegH=0.5, $leaderHeadway=1.2, $fakeSpeed=(1 == 3), $fakeAcc=(1 == 4), $fakePos=(1 == 2)"
attr nCars 8
attr nLanes 1
attr network scenario
attr packetSize 200
attr platoonSize 8
attr ploegH 0.5
attr priority 2
attr processid 87584
attr repetition 4
attr replication #4
attr resultdir results
attr runnumber 74
attr sController "\"CONSENSUS\""
attr seedset 4
param **.coreDebug false
param **.debug false
param **.headway 0.1s
param **.numberOfCars 8
param **.numberOfCarsPerPlatoon 8
param **.numberOfLanes 1
param **.numericController 3
param **.traffic.nCars 8
param **.traffic.nLanes 1
param **.traffic.platoonInsertDistance 15m
param **.traffic.platoonInsertHeadway 0.8s
param **.traffic.platoonInsertSpeed 100kmph
param **.traffic.platoonInsertTime "1 s"
param **.traffic.platoonLeaderHeadway 1.2s
param **.traffic.platoonSize 8
param **.traffic.platooningVType "\"vtypeauto\""
param **.traffic_type "\"PlatoonsTrafficManager\""
param *.**.nic.mac1609_4.bitrate 6Mbps
param *.**.nic.mac1609_4.txPower 100mW
param *.**.nic.mac1609_4.useServiceChannel false
param *.**.nic.phy80211p.analogueModels "xmldoc(\"config.xml\")"
param *.**.nic.phy80211p.decider "xmldoc(\"config.xml\")"
param *.**.nic.phy80211p.maxTXPower 100mW
param *.**.nic.phy80211p.sensitivity -94dBm
param *.**.nic.phy80211p.thermalNoise -95dBm
param *.**.nic.phy80211p.usePropagationDelay true
param *.**.nic.phy80211p.useThermalNoise true
param *.annotations.draw false
param *.connectionManager.alpha 2.0
param *.connectionManager.carrierFrequency "5.890e9 Hz"
param *.connectionManager.pMax 100mW
param *.connectionManager.sat -94dBm
param *.connectionManager.sendDirect true
param *.manager.autoShutdown true
param *.manager.commandLine "\"sumo --remote-port $port --seed $seed --configuration-file $configFile\""
param *.manager.configFile "\"./sumocfg/freeway.sumo.cfg\""
param *.manager.host "\"localhost\""
param *.manager.margin 25
param *.manager.moduleDisplayString "\"\""
param *.manager.moduleName "\"node\""
param *.manager.moduleType "\"Car\""
param *.manager.updateInterval 0.01s
param *.node[*].appl.attackStart 30s
param *.node[*].appl.attackerType 1
param *.node[*].appl.simulationDuration "60 s"
param *.node[*].appl_type "\"SimplePlatooningApp\""
param *.node[*].helper.nCars 8
param *.node[*].helper.nLanes 1
param *.node[*].helper.platoonSize 8
param *.node[*].helper_type "\"PositionHelper\""
param *.node[*].mobility.x 0
param *.node[*].mobility.y 0
param *.node[*].mobility.z 1.895
param *.node[*].prot.attackStart 30s
param *.node[*].prot.attackerType 1
param *.node[*].prot.attackingNode 3
param *.node[*].prot.beaconingInterval 0.1s
param *.node[*].prot.fakeAcc "(1 == 4)"
param *.node[*].prot.fakePos "(1 == 2)"
param *.node[*].prot.fakeSpeed "(1 == 3)"
param *.node[*].prot.maliciousAcc "-30 mpss"
param *.node[*].prot.maliciousSpeed 150kmph
param *.node[*].prot.packetSize 200
param *.node[*].prot.priority 2
param *.node[*].prot.shiftX "7 m"
param *.node[*].prot.useControllerAcceleration true
param *.node[*].protocol_type "\"SimplePlatooningBeaconing\""
param *.node[*].scenario.accHeadway 0.1s
param *.node[*].scenario.caccC1 0.5
param *.node[*].scenario.caccOmegaN "0.2 Hz"
param *.node[*].scenario.caccSpacing 5m
param *.node[*].scenario.caccXi 1
param *.node[*].scenario.controller "\"CONSENSUS\""
param *.node[*].scenario.engineTau "0.5 s"
param *.node[*].scenario.leaderHeadway 1.2s
param *.node[*].scenario.leaderOscillationFrequency "0.2 Hz"
param *.node[*].scenario.leaderSpeed 100kmph
param *.node[*].scenario.oscillationAmplitude "10 kmph"
param *.node[*].scenario.ploegH 0.5s
param *.node[*].scenario.ploegKd 0.7
param *.node[*].scenario.ploegKp 0.2
param *.node[*].scenario.startOscillating "5 s"
param *.node[*].scenario.useRealisticEngine false
param *.node[*].scenario_type "\"SinusoidalScenario\""
param *.node[*].unicast.packetLossRate 0
param *.obstacles.debug false
param *.playgroundSizeX 65000m
param *.playgroundSizeY 25000m
param *.playgroundSizeZ 50m
param *.world.use2D false
param *.world.useTorus false

vector 0  scenario.node[0].appl  distance  ETV
vector 1  scenario.node[0].appl  relativeSpeed  ETV
vector 2  scenario.node[0].appl  nodeId  ETV
vector 6  scenario.node[0].appl  acceleration  ETV
vector 7  scenario.node[0].appl  controllerAcceleration  ETV
vector 3  scenario.node[0].appl  speed  ETV
vector 4  scenario.node[0].appl  posx  ETV
vector 5  scenario.node[0].appl  posy  ETV
vector 22  scenario.node[1].appl  distance  ETV
vector 23  scenario.node[1].appl  relativeSpeed  ETV
vector 24  scenario.node[1].appl  nodeId  ETV
vector 28  scenario.node[1].appl  acceleration  ETV
vector 29  scenario.node[1].appl  controllerAcceleration  ETV
vector 25  scenario.node[1].appl  speed  ETV
vector 26  scenario.node[1].appl  posx  ETV
vector 27  scenario.node[1].appl  posy  ETV
vector 44  scenario.node[2].appl  distance  ETV
vector 45  scenario.node[2].appl  relativeSpeed  ETV
vector 46  scenario.node[2].appl  nodeId  ETV
vector 50  scenario.node[2].appl  acceleration  ETV
vector 51  scenario.node[2].appl  controllerAcceleration  ETV
vector 47  scenario.node[2].appl  speed  ETV
vector 48  scenario.node[2].appl  posx  ETV
vector 49  scenario.node[2].appl  posy  ETV
vector 66  scenario.node[3].appl  distance  ETV
vector 67  scenario.node[3].appl  relativeSpeed  ETV
vector 68  scenario.node[3].appl  nodeId  ETV
vector 72  scenario.node[3].appl  acceleration  ETV
vector 73  scenario.node[3].appl  controllerAcceleration  ETV
vector 69  scenario.node[3].appl  speed  ETV
vector 70  scenario.node[3].appl  posx  ETV
vector 71  scenario.node[3].appl  posy  ETV
vector 88  scenario.node[4].appl  distance  ETV
vector 89  scenario.node[4].appl  relativeSpeed  ETV
vector 90  scenario.node[4].appl  nodeId  ETV
vector 94  scenario.node[4].appl  acceleration  ETV
vector 95  scenario.node[4].appl  controllerAcceleration  ETV
vector 91  scenario.node[4].appl  speed  ETV
vector 92  scenario.node[4].appl  posx  ETV
vector 93  scenario.node[4].appl  posy  ETV
vector 110  scenario.node[5].appl  distance  ETV
vector 111  scenario.node[5].appl  relativeSpeed  ETV
vector 112  scenario.node[5].appl  nodeId  ETV
vector 116  scenario.node[5].appl  acceleration  ETV
vector 117  scenario.node[5].appl  controllerAcceleration  ETV
vector 113  scenario.node[5].appl  speed  ETV
vector 114  scenario.node[5].appl  posx  ETV
vector 115  scenario.node[5].appl  posy  ETV
vector 132  scenario.node[6].appl  distance  ETV
vector 133  scenario.node[6].appl  relativeSpeed  ETV
vector 134  scenario.node[6].appl  nodeId  ETV
vector 138  scenario.node[6].appl  acceleration  ETV
vector 139  scenario.node[6].appl  controllerAcceleration  ETV
vector 135  scenario.node[6].appl  speed  ETV
vector 136  scenario.node[6].appl  posx  ETV
vector 137  scenario.node[6].appl  posy  ETV
vector 154  scenario.node[7].appl  distance  ETV
vector 155  scenario.node[7].appl  relativeSpeed  ETV
vector 156  scenario.node[7].appl  nodeId  ETV
vector 160  scenario.node[7].appl  acceleration  ETV
vector 161  scenario.node[7].appl  controllerAcceleration  ETV
vector 157  scenario.node[7].appl  speed  ETV
vector 158  scenario.node[7].appl  posx  ETV
vector 159  scenario.node[7].appl  posy  ETV
vector 102  scenario.node[4].prot  frontDelay  ETV
vector 100  scenario.node[4].prot  frontDelayId  ETV
vector 35  scenario.node[1].prot  leaderDelay  ETV
vector 33  scenario.node[1].prot  leaderDelayId  ETV
vector 36  scenario.node[1].prot  frontDelay  ETV
vector 34  scenario.node[1].prot  frontDelayId  ETV
vector 57  scenario.node[2].prot  leaderDelay  ETV
vector 55  scenario.node[2].prot  leaderDelayId  ETV
vector 79  scenario.node[3].prot  leaderDelay  ETV
vector 77  scenario.node[3].prot  leaderDelayId  ETV
vector 101  scenario.node[4].prot  leaderDelay  ETV
vector 99  scenario.node[4].prot  leaderDelayId  ETV
vector 123  scenario.node[5].prot  leaderDelay  ETV
vector 121  scenario.node[5].prot  leaderDelayId  ETV
vector 145  scenario.node[6].prot  leaderDelay  ETV
vector 143  scenario.node[6].prot  leaderDelayId  ETV
vector 167  scenario.node[7].prot  leaderDelay  ETV
vector 165  scenario.node[7].prot  leaderDelayId  ETV
vector 80  scenario.node[3].prot  frontDelay  ETV
vector 78  scenario.node[3].prot  frontDelayId  ETV
vector 146  scenario.node[6].prot  frontDelay  ETV
vector 144  scenario.node[6].prot  frontDelayId  ETV
vector 58  scenario.node[2].prot  frontDelay  ETV
vector 56  scenario.node[2].prot  frontDelayId  ETV
vector 124  scenario.node[5].prot  frontDelay  ETV
vector 122  scenario.node[5].prot  frontDelayId  ETV
vector 168  scenario.node[7].prot  frontDelay  ETV
vector 166  scenario.node[7].prot  frontDelayId  ETV
vector 8  scenario.node[0].prot  nodeId  ETV
vector 9  scenario.node[0].prot  busyTime  ETV
vector 10  scenario.node[0].prot  collisions  ETV
vector 30  scenario.node[1].prot  nodeId  ETV
vector 31  scenario.node[1].prot  busyTime  ETV
vector 32  scenario.node[1].prot  collisions  ETV
vector 52  scenario.node[2].prot  nodeId  ETV
vector 53  scenario.node[2].prot  busyTime  ETV
vector 54  scenario.node[2].prot  collisions  ETV
vector 74  scenario.node[3].prot  nodeId  ETV
vector 75  scenario.node[3].prot  busyTime  ETV
vector 76  scenario.node[3].prot  collisions  ETV
vector 96  scenario.node[4].prot  nodeId  ETV
vector 97  scenario.node[4].prot  busyTime  ETV
vector 98  scenario.node[4].prot  collisions  ETV
vector 118  scenario.node[5].prot  nodeId  ETV
vector 119  scenario.node[5].prot  busyTime  ETV
vector 120  scenario.node[5].prot  collisions  ETV
vector 140  scenario.node[6].prot  nodeId  ETV
vector 141  scenario.node[6].prot  busyTime  ETV
vector 142  scenario.node[6].prot  collisions  ETV
vector 162  scenario.node[7].prot  nodeId  ETV
vector 163  scenario.node[7].prot  busyTime  ETV
vector 164  scenario.node[7].prot  collisions  ETV
7	11266 13860 232 328174 1.11 59.91 589 -1.5 1.5 -14.445974034379 993.24092368185
6	25126 18594 232 328174 1.11 59.91 589 -1.4722746794938 1.4513434175793 -12.50726914995 675.29835222675
5	43720 12081 232 328174 1.11 59.91 589 36.55 36.55 21527.95 786846.5725
4	55801 17907 232 328174 1.11 59.91 589 337.608527374 1975.2579929164 681958.95931502 921379156.83866
3	73708 17905 232 328174 1.11 59.91 589 26.487965859734 29.742492528104 16403.83880962 457295.15275867
1	91613 9725 232 328174 1.11 59.91 589 0 0 0 0
0	101338 10314 232 328174 1.11 59.91 589 -1 -1 -589 589
2	111652 9725 232 328174 1.11 59.91 589 0 0 0 0
10	121377 859 5234 328728 2 60 59 0 0 0 0
9	122236 1155 5234 328728 2 60 59 0.023625 0.02625 1.546125 0.040523765625
8	123391 800 5234 328728 2 60 59 0 0 0 0
29	124191 20194 233 328175 1.11 59.91 589 -1.9530783944912 1.9467181651467 -12.372213106666 502.05343335117
28	144385 20191 233 328175 1.11 59.91 589 -1.7217025762111 1.7125267255711 -12.474250109545 364.03518887564
27	164576 12670 233 328175 1.11 59.91 589 36.55 36.55 21527.95 786846.5725
26	177246 18489 233 328175 1.11 59.91 589 296.38629837036 1897.6492180391 652403.12779138 848762616.74727
25	195735 18492 233 328175 1.11 59.91 589 26.28891750489 29.733430395573 16039.970624635 437344.99618374
23	214227 19183 233 328175 1.11 59.91 589 -1.2227053410495 2.5353717908644 363.99325767589 892.16118063402
22	233410 18494 233 328175 1.11 59.91 589 36.176148758407 73.608329429118 27192.554159941 1335102.9603099
24	251904 10314 233 328175 1.11 59.91 589 1 1 589 589
36	262218 23685 964 328350 1.241826125078 59.941815912343 588 0.099988024776 0.100001203579 58.799990812322 5.8799981700528
35	285903 23685 964 328350 1.241826125078 59.941815912343 588 0.099988024776 0.100001203579 58.799990812322 5.8799981700528
34	309588 16114 964 328350 1.241826125078 59.941815912343 588 1 1 588 588
33	325702 16114 964 328350 1.241826125078 59.941815912343 588 1 1 588 588
32	341816 859 5235 328729 2 60 59 0 0 0 0
31	342675 1214 5235 328729 2 60 59 0.023625 0.02625 1.546125 0.040523765625
30	343889 859 5235 328729 2 60 59 1 1 59 59
51	344748 20102 234 328176 1.11 59.91 589 -1.4194130142112 1.4074171548005 -12.222600461891 275.75518571406
50	364850 20150 234 328176 1.11 59.91 589 -1.2931901050912 1.2693696868538 -12.472624984674 205.88889942758
49	385000 12670 234 328176 1.11 59.91 589 36.55 36.55 21527.95 786846.5725
48	397670 18492 234 328176 1.11 59.91 589 255.16408462524 1857.4233857417 628340.33798832 796696192.88238
47	416162 18491 234 328176 1.11 59.91 589 26.531818327111 29.401165371346 16049.934423544 437766.88409178
45	434653 20180 234 328176 1.11 59.91 589 -0.38763643207361 0.35856195857571 -9.8390564077628 17.113596401624
44	454833 18502 234 328176 1.11 59.91 589 36.225835054595 37.874691620406 21706.989079032 800157.53742749
46	473335 10314 234 328176 1.11 59.91 589 2 2 1178 2356
58	483649 23685 1176 328556 1.281936362601 59.981939120282 588 0.099988023789 0.100001203571 58.800003782738 5.8800007639975
57	507334 23713 970 328356 1.24182626258 59.941816046522 588 0.099988024699 0.100001203579 58.799990808999 5.8799981693882
56	531047 16116 1176 328556 1.281936362601 59.981939120282 588 2 2 1176 2352
55	547163 16120 970 328356 1.24182626258 59.941816046522 588 2 2 1176 2352
54	563283 859 5236 328730 2 60 59 0 0 0 0
53	564142 1214 5236 328730 2 60 59 0.023625 0.02625 1.546125 0.040523765625
52	565356 859 5236 328730 2 60 59 2 2 118 236
73	566215 20000 235 328177 1.11 59.91 589 -1.497484356203 1.4874522602189 -12.237681651227 300.91379572108
72	586215 20012 235 328177 1.11 59.91 589 -1.3293510011319 1.3168706024263 -12.458137104999 220.29963492729
71	606227 12670 235 328177 1.11 59.91 589 36.55 36.55 21527.95 786846.5725
70	618897 18500 235 328177 1.11 59.91 589 213.94187088013 1817.1949984246 604243.03347463 746504389.45671
69	637397 18483 235 328177 1.11 59.91 589 26.532587065657 29.343221912437 16059.872995455 438302.16166812
67	655880 20276 235 328177 1.11 59.91 589 -0.13104538415808 0.12238367613661 -9.8138456610796 1.712397055885
66	676156 18495 235 328177 1.11 59.91 589 36.228402691898 37.542831999341 21741.503285127 802672.04126745
68	694651 10314 235 328177 1.11 59.91 589 3 3 1767 5301
80	704965 23692 1040 328426 1.262753400083 59.962756180709 588 0.099988023559 0.100001203579 58.800003805683 5.8800007685848
79	728657 23700 976 328362 1.241826400083 59.94181618071 588 0.099988024719 0.100001203579 58.799990805684 5.8799981687252
78	752357 16113 1040 328426 1.262753400083 59.962756180709 588 3 3 1764 5292
77	768470 16118 976 328362 1.241826400083 59.94181618071 588 3 3 1764 5292
76	784588 859 5237 328731 2 60 59 0 0 0 0
75	785447 1214 5237 328731 2 60 59 0.023625 0.02625 1.546125 0.040523765625
74	786661 859 5237 328731 2 60 59 3 3 177 531
95	787520 19925 236 328178 1.11 59.91 589 -1.4619047702961 1.4568817541616 -12.41086166314 290.00192793262
94	807445 19951 236 328178 1.11 59.91 589 -1.2921860732867 1.2837877338011 -12.427736783212 209.9862484958
93	827396 12670 236 328178 1.11 59.91 589 36.55 36.55 21527.95 786846.5725
92	840066 18503 236 328178 1.11 59.91 589 172.71964187622 1776.9574138681 580114.40065328 698197615.74047
91	858569 18494 236 328178 1.11 59.91 589 26.535341354347 29.308189156624 16069.720591187 438818.9064024
89	877063 20348 236 328178 1.11 59.91 589 -0.075679746455176 0.052134485391608 -9.7230143613007 0.70944716649256
88	897411 18487 236 328178 1.11 59.91 589 36.237639642241 37.452703310452 21772.829773266 804963.76960039
90	915898 10314 236 328178 1.11 59.91 589 4 4 2356 9424
102	926212 24263 904 328290 1.24052871257 59.940531260444 588 0.099988023273 0.10000120354 58.800003572931 5.8800007220338
101	950475 24304 982 328368 1.241826537585 59.941816314927 588 0.099988024705 0.100001203578 58.799990802399 5.8799981680682
100	974779 16693 904 328290 1.24052871257 59.940531260444 588 4 4 2352 9408
99	991472 16115 982 328368 1.241826537585 59.941816314927 588 4 4 2352 9408
98	1007587 859 5238 328732 2 60 59 0 0 0 0
97	1008446 1214 5238 328732 2 60 59 0.023625 0.02625 1.546125 0.040523765625
96	1009660 859 5238 328732 2 60 59 4 4 236 944
117	1010519 20482 237 328179 1.11 59.91 589 -1.4031854979314 1.4018124923156 -11.687079636374 267.72367939302
116	1031001 20505 237 328179 1.11 59.91 589 -1.2577835141673 1.2516998130021 -12.367125402452 198.62560898748
115	1051506 13259 237 328179 1.11 59.91 589 36.55 36.55 21527.95 786846.5725
114	1064765 19082 237 328179 1.11 59.91 589 131.49742050171 1736.6962488731 555958.19184569 651788478.07255
113	1083847 19099 237 328179 1.11 59.91 589 26.542394789582 29.272141136059 16079.33319055 439321.91858155
111	1102946 20846 237 328179 1.11 59.91 589 -0.060764999783107 0.053411805115417 -9.4883219951043 0.60786144847986
110	1123792 19093 237 328179 1.11 59.91 589 36.26130606369 37.420904257976 21800.401059585 806980.74173688
112	1142885 10903 237 328179 1.11 59.91 589 5 5 2945 14725
124	1153788 24280 1242 328628 1.287393775109 59.987396522982 588 0.099988023519 0.100001203567 58.80000377293 5.8800007620338
123	1178068 24300 988 328374 1.241826675088 59.941816449224 588 0.099988024695 0.100001203575 58.799990799193 5.879998167427
122	1202368 16706 1242 328628 1.287393775109 59.987396522982 588 5 5 2940 14700
121	1219074 16711 988 328374 1.241826675088 59.941816449224 588 5 5 2940 14700
120	1235785 918 5239 328733 2 60 59 0 0 0 0
119	1236703 1273 5239 328733 2 60 59 0.023625 0.02625 1.546125 0.040523765625
118	1237976 918 5239 328733 2 60 59 5 5 295 1475
139	1238894 20453 238 328180 1.11 59.91 589 -1.3783875854117 1.3769027046812 -11.839195336016 258.39544088613
138	1259347 20478 238 328180 1.11 59.91 589 -1.2266741125107 1.2228461466801 -12.213233022964 189.38743043477
137	1279825 13259 238 328180 1.11 59.91 589 36.55 36.55 21527.95 786846.5725
136	1293084 19076 238 328180 1.11 59.91 589 90.275199127197 1696.3889866993 531778.18524826 607290410.82942
135	1312160 19087 238 328180 1.11 59.91 589 26.556207221508 29.237167954532 16088.487797945 439801.88725439
133	1331247 20820 238 328180 1.11 59.91 589 -0.05059339132514 0.037547329323942 -9.0309361402423 0.48860148040167
132	1352067 19081 238 328180 1.11 59.91 589 36.307538422503 37.386313241193 21824.189689576 808720.99323752
134	1371148 10903 238 328180 1.11 59.91 589 6 6 3534 21204
146	1382051 24269 1106 328492 1.266715812591 59.966705583671 588 0.099988025057 0.100001203551 58.799990796137 5.879998166816
145	1406320 24286 994 328380 1.24182681259 59.941816583673 588 0.099988024686 0.100001203571 58.79999079614 5.8799981668164
144	1430606 16688 1106 328492 1.266715812591 59.966705583671 588 6 6 3528 21168
143	1447294 16709 994 328380 1.24182681259 59.941816583673 588 6 6 3528 21168
142	1464003 918 5240 328734 2 60 59 0 0 0 0
141	1464921 1273 5240 328734 2 60 59 0.023625 0.02625 1.546125 0.040523765625
140	1466194 918 5240 328734 2 60 59 6 6 354 2124
161	1467112 20501 239 328181 1.11 59.91 589 -1.3359029630663 1.3342373890725 -11.079247641288 242.45418249785
160	1487613 20461 239 328181 1.11 59.91 589 -1.195939535965 1.1923271490279 -12.015013049008 179.95569417923
159	1508074 13259 239 328181 1.11 59.91 589 36.55 36.55 21527.95 786846.5725
158	1521333 19072 239 328181 1.11 59.91 589 49.052977752686 1656.0105354271 507579.14564252 564719989.82662
157	1540405 19099 239 328181 1.11 59.91 589 26.577759533076 29.201740168421 16096.932705248 440243.89292145
155	1559504 20821 239 328181 1.11 59.91 589 -0.043198048899882 0.037548652223059 -8.3227749730076 0.42833336952784
154	1580325 19090 239 328181 1.11 59.91 589 36.378882318373 37.364712655062 21843.208503879 810112.28058231
156	1599415 10903 239 328181 1.11 59.91 589 7 7 4123 28861
168	1610318 24292 1308 328694 1.289471050114 59.989473792113 588 0.09998802376 0.100001203556 58.800003767056 5.8800007608611
167	1634610 24285 1000 328386 1.241826950093 59.941816718359 588 0.099988024677 0.100001203563 58.799990793323 5.879998166253
166	1658895 16708 1308 328694 1.289471050114 59.989473792113 588 7 7 4116 28812
165	1675603 16706 1000 328386 1.241826950093 59.941816718359 588 7 7 4116 28812
164	1692309 918 5241 328735 2 60 59 0 0 0 0
163	1693227 1273 5241 328735 2 60 59 0.023625 0.02625 1.546125 0.040523765625
162	1694500 918 5241 328735 2 60 59 7 7 413 2891
