file 1687484 1501509509                                         
version 2
run SinusoidalJammingAttack-35-20170731-15:56:33-25394
attr CACCSpacing 20
attr attackAcc -30
attr attackPos 7
attr attackSpeed 150
attr attackStart 30
attr attacker 1
attr beaconInterval 0.1
attr configname SinusoidalJammingAttack
attr controller 1
attr datetime 20170731-15:56:33
attr experiment SinusoidalJammingAttack
attr fakeAcc "(1 == 4)"
attr fakePos "(1 == 2)"
attr fakeSpeed "(1 == 3)"
attr inifile omnetpp_35.ini
attr iterationvars "$leaderSpeed=80, $controller=1, $CACCSpacing=20, $sController=\"CACC\", $attacker=1, $attackStart=30, $attackSpeed=150, $attackPos=7, $attackAcc=-30, $0=20, $1=0, $nCars=8, $platoonSize=8, $nLanes=1, $beaconInterval=0.1, $priority=2, $packetSize=200, $ploegH=0.5, $leaderHeadway=1.2, $fakeSpeed=(1 == 3), $fakeAcc=(1 == 4), $fakePos=(1 == 2)"
attr iterationvarsf leaderSpeed=80,controller=1,CACCSpacing=20,sController=CACC,attacker=1,attackStart=30,attackSpeed=150,attackPos=7,attackAcc=-30,20,0,nCars=8,platoonSize=8,nLanes=1,beaconInterval=0.1,priority=2,packetSize=200,ploegH=0.5,leaderHeadway=1.2,fakeSpeed=(1_==_3),fakeAcc=(1_==_4),fakePos=(1_==_2)-
attr leaderHeadway 1.2
attr leaderSpeed 80
attr measurement "$leaderSpeed=80, $controller=1, $CACCSpacing=20, $sController=\"CACC\", $attacker=1, $attackStart=30, $attackSpeed=150, $attackPos=7, $attackAcc=-30, $0=20, $1=0, $nCars=8, $platoonSize=8, $nLanes=1, $beaconInterval=0.1, $priority=2, $packetSize=200, $ploegH=0.5, $leaderHeadway=1.2, $fakeSpeed=(1 == 3), $fakeAcc=(1 == 4), $fakePos=(1 == 2)"
attr nCars 8
attr nLanes 1
attr network scenario
attr packetSize 200
attr platoonSize 8
attr ploegH 0.5
attr priority 2
attr processid 25394
attr repetition 0
attr replication #0
attr resultdir results
attr runnumber 35
attr sController "\"CACC\""
attr seedset 0
param **.coreDebug false
param **.debug false
param **.headway 0.1s
param **.numberOfCars 8
param **.numberOfCarsPerPlatoon 8
param **.numberOfLanes 1
param **.numericController 1
param **.traffic.nCars 8
param **.traffic.nLanes 1
param **.traffic.platoonInsertDistance 20m
param **.traffic.platoonInsertHeadway 0s
param **.traffic.platoonInsertSpeed 80kmph
param **.traffic.platoonInsertTime "1 s"
param **.traffic.platoonLeaderHeadway 1.2s
param **.traffic.platoonSize 8
param **.traffic.platooningVType "\"vtypeauto\""
param **.traffic_type "\"PlatoonsTrafficManager\""
param *.**.nic.mac1609_4.bitrate 6Mbps
param *.**.nic.mac1609_4.txPower 100mW
param *.**.nic.mac1609_4.useServiceChannel false
param *.**.nic.phy80211p.analogueModels "xmldoc(\"config.xml\")"
param *.**.nic.phy80211p.decider "xmldoc(\"config.xml\")"
param *.**.nic.phy80211p.maxTXPower 100mW
param *.**.nic.phy80211p.sensitivity -94dBm
param *.**.nic.phy80211p.thermalNoise -95dBm
param *.**.nic.phy80211p.usePropagationDelay true
param *.**.nic.phy80211p.useThermalNoise true
param *.annotations.draw false
param *.connectionManager.alpha 2.0
param *.connectionManager.carrierFrequency "5.890e9 Hz"
param *.connectionManager.pMax 100mW
param *.connectionManager.sat -94dBm
param *.connectionManager.sendDirect true
param *.manager.autoShutdown true
param *.manager.commandLine "\"sumo --remote-port $port --seed $seed --configuration-file $configFile\""
param *.manager.configFile "\"./sumocfg/freeway.sumo.cfg\""
param *.manager.host "\"localhost\""
param *.manager.margin 25
param *.manager.moduleDisplayString "\"\""
param *.manager.moduleName "\"node\""
param *.manager.moduleType "\"Car\""
param *.manager.updateInterval 0.01s
param *.node[*].appl.attackStart 30s
param *.node[*].appl.attackerType 1
param *.node[*].appl.simulationDuration "60 s"
param *.node[*].appl_type "\"SimplePlatooningApp\""
param *.node[*].helper.nCars 8
param *.node[*].helper.nLanes 1
param *.node[*].helper.platoonSize 8
param *.node[*].helper_type "\"PositionHelper\""
param *.node[*].mobility.x 0
param *.node[*].mobility.y 0
param *.node[*].mobility.z 1.895
param *.node[*].prot.attackStart 30s
param *.node[*].prot.attackerType 1
param *.node[*].prot.attackingNode 3
param *.node[*].prot.beaconingInterval 0.1s
param *.node[*].prot.fakeAcc "(1 == 4)"
param *.node[*].prot.fakePos "(1 == 2)"
param *.node[*].prot.fakeSpeed "(1 == 3)"
param *.node[*].prot.maliciousAcc "-30 mpss"
param *.node[*].prot.maliciousSpeed 150kmph
param *.node[*].prot.packetSize 200
param *.node[*].prot.priority 2
param *.node[*].prot.shiftX "7 m"
param *.node[*].prot.useControllerAcceleration true
param *.node[*].protocol_type "\"SimplePlatooningBeaconing\""
param *.node[*].scenario.accHeadway 0.1s
param *.node[*].scenario.caccC1 0.5
param *.node[*].scenario.caccOmegaN "0.2 Hz"
param *.node[*].scenario.caccSpacing 20m
param *.node[*].scenario.caccXi 1
param *.node[*].scenario.controller "\"CACC\""
param *.node[*].scenario.engineTau "0.5 s"
param *.node[*].scenario.leaderHeadway 1.2s
param *.node[*].scenario.leaderOscillationFrequency "0.2 Hz"
param *.node[*].scenario.leaderSpeed 80kmph
param *.node[*].scenario.oscillationAmplitude "10 kmph"
param *.node[*].scenario.ploegH 0.5s
param *.node[*].scenario.ploegKd 0.7
param *.node[*].scenario.ploegKp 0.2
param *.node[*].scenario.startOscillating "5 s"
param *.node[*].scenario.useRealisticEngine false
param *.node[*].scenario_type "\"SinusoidalScenario\""
param *.node[*].unicast.packetLossRate 0
param *.obstacles.debug false
param *.playgroundSizeX 65000m
param *.playgroundSizeY 25000m
param *.playgroundSizeZ 50m
param *.world.use2D false
param *.world.useTorus false

vector 0  scenario.node[0].appl  distance  ETV
vector 1  scenario.node[0].appl  relativeSpeed  ETV
vector 2  scenario.node[0].appl  nodeId  ETV
vector 6  scenario.node[0].appl  acceleration  ETV
vector 7  scenario.node[0].appl  controllerAcceleration  ETV
vector 3  scenario.node[0].appl  speed  ETV
vector 4  scenario.node[0].appl  posx  ETV
vector 5  scenario.node[0].appl  posy  ETV
vector 22  scenario.node[1].appl  distance  ETV
vector 23  scenario.node[1].appl  relativeSpeed  ETV
vector 24  scenario.node[1].appl  nodeId  ETV
vector 28  scenario.node[1].appl  acceleration  ETV
vector 29  scenario.node[1].appl  controllerAcceleration  ETV
vector 25  scenario.node[1].appl  speed  ETV
vector 26  scenario.node[1].appl  posx  ETV
vector 27  scenario.node[1].appl  posy  ETV
vector 44  scenario.node[2].appl  distance  ETV
vector 45  scenario.node[2].appl  relativeSpeed  ETV
vector 46  scenario.node[2].appl  nodeId  ETV
vector 50  scenario.node[2].appl  acceleration  ETV
vector 51  scenario.node[2].appl  controllerAcceleration  ETV
vector 47  scenario.node[2].appl  speed  ETV
vector 48  scenario.node[2].appl  posx  ETV
vector 49  scenario.node[2].appl  posy  ETV
vector 66  scenario.node[3].appl  distance  ETV
vector 67  scenario.node[3].appl  relativeSpeed  ETV
vector 68  scenario.node[3].appl  nodeId  ETV
vector 72  scenario.node[3].appl  acceleration  ETV
vector 73  scenario.node[3].appl  controllerAcceleration  ETV
vector 69  scenario.node[3].appl  speed  ETV
vector 70  scenario.node[3].appl  posx  ETV
vector 71  scenario.node[3].appl  posy  ETV
vector 88  scenario.node[4].appl  distance  ETV
vector 89  scenario.node[4].appl  relativeSpeed  ETV
vector 90  scenario.node[4].appl  nodeId  ETV
vector 94  scenario.node[4].appl  acceleration  ETV
vector 95  scenario.node[4].appl  controllerAcceleration  ETV
vector 91  scenario.node[4].appl  speed  ETV
vector 92  scenario.node[4].appl  posx  ETV
vector 93  scenario.node[4].appl  posy  ETV
vector 110  scenario.node[5].appl  distance  ETV
vector 111  scenario.node[5].appl  relativeSpeed  ETV
vector 112  scenario.node[5].appl  nodeId  ETV
vector 116  scenario.node[5].appl  acceleration  ETV
vector 117  scenario.node[5].appl  controllerAcceleration  ETV
vector 113  scenario.node[5].appl  speed  ETV
vector 114  scenario.node[5].appl  posx  ETV
vector 115  scenario.node[5].appl  posy  ETV
vector 132  scenario.node[6].appl  distance  ETV
vector 133  scenario.node[6].appl  relativeSpeed  ETV
vector 134  scenario.node[6].appl  nodeId  ETV
vector 138  scenario.node[6].appl  acceleration  ETV
vector 139  scenario.node[6].appl  controllerAcceleration  ETV
vector 135  scenario.node[6].appl  speed  ETV
vector 136  scenario.node[6].appl  posx  ETV
vector 137  scenario.node[6].appl  posy  ETV
vector 154  scenario.node[7].appl  distance  ETV
vector 155  scenario.node[7].appl  relativeSpeed  ETV
vector 156  scenario.node[7].appl  nodeId  ETV
vector 160  scenario.node[7].appl  acceleration  ETV
vector 161  scenario.node[7].appl  controllerAcceleration  ETV
vector 157  scenario.node[7].appl  speed  ETV
vector 158  scenario.node[7].appl  posx  ETV
vector 159  scenario.node[7].appl  posy  ETV
vector 80  scenario.node[3].prot  frontDelay  ETV
vector 78  scenario.node[3].prot  frontDelayId  ETV
vector 58  scenario.node[2].prot  frontDelay  ETV
vector 56  scenario.node[2].prot  frontDelayId  ETV
vector 168  scenario.node[7].prot  frontDelay  ETV
vector 166  scenario.node[7].prot  frontDelayId  ETV
vector 35  scenario.node[1].prot  leaderDelay  ETV
vector 33  scenario.node[1].prot  leaderDelayId  ETV
vector 36  scenario.node[1].prot  frontDelay  ETV
vector 34  scenario.node[1].prot  frontDelayId  ETV
vector 57  scenario.node[2].prot  leaderDelay  ETV
vector 55  scenario.node[2].prot  leaderDelayId  ETV
vector 79  scenario.node[3].prot  leaderDelay  ETV
vector 77  scenario.node[3].prot  leaderDelayId  ETV
vector 101  scenario.node[4].prot  leaderDelay  ETV
vector 99  scenario.node[4].prot  leaderDelayId  ETV
vector 123  scenario.node[5].prot  leaderDelay  ETV
vector 121  scenario.node[5].prot  leaderDelayId  ETV
vector 145  scenario.node[6].prot  leaderDelay  ETV
vector 143  scenario.node[6].prot  leaderDelayId  ETV
vector 167  scenario.node[7].prot  leaderDelay  ETV
vector 165  scenario.node[7].prot  leaderDelayId  ETV
vector 124  scenario.node[5].prot  frontDelay  ETV
vector 122  scenario.node[5].prot  frontDelayId  ETV
vector 102  scenario.node[4].prot  frontDelay  ETV
vector 100  scenario.node[4].prot  frontDelayId  ETV
vector 146  scenario.node[6].prot  frontDelay  ETV
vector 144  scenario.node[6].prot  frontDelayId  ETV
vector 8  scenario.node[0].prot  nodeId  ETV
vector 9  scenario.node[0].prot  busyTime  ETV
vector 10  scenario.node[0].prot  collisions  ETV
vector 30  scenario.node[1].prot  nodeId  ETV
vector 31  scenario.node[1].prot  busyTime  ETV
vector 32  scenario.node[1].prot  collisions  ETV
vector 52  scenario.node[2].prot  nodeId  ETV
vector 53  scenario.node[2].prot  busyTime  ETV
vector 54  scenario.node[2].prot  collisions  ETV
vector 74  scenario.node[3].prot  nodeId  ETV
vector 75  scenario.node[3].prot  busyTime  ETV
vector 76  scenario.node[3].prot  collisions  ETV
vector 96  scenario.node[4].prot  nodeId  ETV
vector 97  scenario.node[4].prot  busyTime  ETV
vector 98  scenario.node[4].prot  collisions  ETV
vector 118  scenario.node[5].prot  nodeId  ETV
vector 119  scenario.node[5].prot  busyTime  ETV
vector 120  scenario.node[5].prot  collisions  ETV
vector 140  scenario.node[6].prot  nodeId  ETV
vector 141  scenario.node[6].prot  busyTime  ETV
vector 142  scenario.node[6].prot  collisions  ETV
vector 162  scenario.node[7].prot  nodeId  ETV
vector 163  scenario.node[7].prot  busyTime  ETV
vector 164  scenario.node[7].prot  collisions  ETV
7	11232 13855 232 328174 1.11 59.91 589 -1.5 1.5 -14.445957496355 993.24092342393
6	25087 18568 232 328174 1.11 59.91 589 -1.4722746795719 1.4513434175793 -12.507252200722 675.29835178084
5	43655 12081 232 328174 1.11 59.91 589 36.55 36.55 21527.95 786846.5725
4	55736 17912 232 328174 1.11 59.91 589 203.66208725002 1514.6448846145 506861.17186513 520586983.11583
3	73648 17918 232 328174 1.11 59.91 589 20.932410304178 24.18693697487 13131.616571188 293209.28872176
1	91566 9725 232 328174 1.11 59.91 589 0 0 0 0
0	101291 10314 232 328174 1.11 59.91 589 -1 -1 -589 589
2	111605 9725 232 328174 1.11 59.91 589 0 0 0 0
10	121330 858 5102 328596 2 60 59 0 0 0 0
9	122188 1154 5102 328596 2 60 59 0.022969 0.02625 1.545469 0.040493199961
8	123342 799 5102 328596 2 60 59 0 0 0 0
29	124141 19062 233 328175 1.11 59.91 589 -1.5112642282752 1.5120701295871 0.78690349894704 462.78702893303
28	143203 19642 233 328175 1.11 59.91 589 -1.4820302877038 1.4492283739109 0.69702775889304 317.05202472054
27	162845 12670 233 328175 1.11 59.91 589 36.55 36.55 21527.95 786846.5725
26	175515 18475 233 328175 1.11 59.91 589 179.66208724976 1499.9560590095 494357.42575989 500825512.07172
25	193990 18483 233 328175 1.11 59.91 589 20.921163517075 24.185871379211 13225.18655915 297228.66370613
23	212473 19658 233 328175 1.11 59.91 589 -2.172775245314 1.2616291189749 -93.444915440277 313.22367280567
22	232131 18496 233 328175 1.11 59.91 589 9.5669166042965 22.248066873028 10149.617505001 184019.28536863
24	250627 10314 233 328175 1.11 59.91 589 1 1 589 589
36	260941 23679 1032 328418 1.254913282269 59.954930285989 588 0.09990885259 0.100091242722 58.80003024527 5.8800070825747
35	284620 23679 1032 328418 1.254913282269 59.954930285989 588 0.09990885259 0.100091242722 58.80003024527 5.8800070825747
34	308299 16129 1032 328418 1.254913282269 59.954930285989 588 1 1 588 588
33	324428 16129 1032 328418 1.254913282269 59.954930285989 588 1 1 588 588
32	340557 858 5103 328597 2 60 59 0 0 0 0
31	341415 1213 5103 328597 2 60 59 0.022969 0.02625 1.545469 0.040493199961
30	342628 858 5103 328597 2 60 59 1 1 59 59
51	343486 19624 234 328176 1.11 59.91 589 -1.4951715946627 1.4969403250498 1.3182473059388 455.38921451749
50	363110 19650 234 328176 1.11 59.91 589 -1.4749478788829 1.4483793281585 1.2553974053894 317.95805477367
49	382760 12670 234 328176 1.11 59.91 589 36.55 36.55 21527.95 786846.5725
48	395430 18478 234 328176 1.11 59.91 589 155.66208724976 1483.5434010658 481448.28457096 480553127.30035
47	413908 18501 234 328176 1.11 59.91 589 20.925631670499 24.18286802813 13301.07917843 300706.38112078
45	432409 19952 234 328176 1.11 59.91 589 -0.47571279643031 0.035321622755461 -75.899589558247 26.351553435361
44	452361 18478 234 328176 1.11 59.91 589 12.413756508582 20.07036870848 10554.659041311 193797.8404562
46	470839 10314 234 328176 1.11 59.91 589 2 2 1178 2356
58	481153 23626 900 328286 1.22965940166 59.929663666831 588 0.099987212599 0.100012765867 58.800004506721 5.8800009029984
57	504779 23673 1038 328424 1.254913362325 59.954930340729 588 0.099908852493 0.100091242737 58.800030219954 5.8800070775115
56	528452 16083 900 328286 1.22965940166 59.929663666831 588 2 2 1176 2352
55	544535 16114 1038 328424 1.254913362325 59.954930340729 588 2 2 1176 2352
54	560649 858 5104 328598 2 60 59 0 0 0 0
53	561507 1213 5104 328598 2 60 59 0.022969 0.02625 1.545469 0.040493199961
52	562720 858 5104 328598 2 60 59 2 2 118 236
73	563578 19557 235 328177 1.11 59.91 589 -1.4890347540707 1.4891745878917 2.1448455013025 445.51452510184
72	583135 19592 235 328177 1.11 59.91 589 -1.4633940760582 1.435825020403 2.2320032075907 314.6600530702
71	602727 12670 235 328177 1.11 59.91 589 36.55 36.55 21527.95 786846.5725
70	615397 18488 235 328177 1.11 59.91 589 131.66208724976 1466.7838112148 468364.36898349 460449661.29361
69	633885 18494 235 328177 1.11 59.91 589 20.934974785451 24.172703880658 13373.517645205 304059.12508746
67	652379 20065 235 328177 1.11 59.91 589 -0.42431897516822 0.018794903644508 -72.451020748226 22.536947469222
66	672444 18464 235 328177 1.11 59.91 589 12.761560159943 20.045084744294 10729.364356814 199250.07323974
68	690908 10314 235 328177 1.11 59.91 589 3 3 1767 5301
80	701222 23678 832 328218 1.213906321605 59.913897613243 588 0.099987241264 0.100012738288 58.799991533188 5.8799983081306
79	724900 23630 1044 328430 1.25491344238 59.954930396619 588 0.099908852385 0.100091242747 58.800030195789 5.8800070726785
78	748530 16132 832 328218 1.213906321605 59.913897613243 588 3 3 1764 5292
77	764662 16082 1044 328430 1.25491344238 59.954930396619 588 3 3 1764 5292
76	780744 858 5105 328599 2 60 59 0 0 0 0
75	781602 1213 5105 328599 2 60 59 0.022968 0.02625 1.545468 0.040493154024
74	782815 858 5105 328599 2 60 59 3 3 177 531
95	783673 19528 236 328178 1.11 59.91 589 -1.4821468261069 1.4819210727956 3.4207015140887 436.9422561301
94	803201 19558 236 328178 1.11 59.91 589 -1.4529610441212 1.4260514167763 3.6185124834162 311.62685893512
93	822759 12670 236 328178 1.11 59.91 589 36.55 36.55 21527.95 786846.5725
92	835429 18504 236 328178 1.11 59.91 589 107.66208724976 1449.5854758725 455121.3426022 440560696.6249
91	853933 18499 236 328178 1.11 59.91 589 20.943657252735 24.176703166346 13441.582983015 307238.6292279
89	872432 20101 236 328178 1.11 59.91 589 -0.37032780333249 0.013417885857123 -68.087657842362 19.537895104921
88	892533 18488 236 328178 1.11 59.91 589 13.201126441844 20.024761252948 10888.387688041 204294.47859752
90	911021 10314 236 328178 1.11 59.91 589 4 4 2356 9424
102	921335 24261 1246 328641 1.303564162878 60.003554935004 588 0.099987084494 0.100012905876 58.799991013676 5.879998204561
101	945596 24254 1050 328436 1.254913522436 59.954930453968 588 0.099908852271 0.100091242749 58.800030173082 5.880007068137
100	969850 16711 1246 328641 1.303564162878 60.003554935004 588 4 4 2352 9408
99	986561 16121 1050 328436 1.254913522436 59.954930453968 588 4 4 2352 9408
98	1002682 858 5106 328600 2 60 59 0 0 0 0
97	1003540 1213 5106 328600 2 60 59 0.022969 0.02625 1.545469 0.040493199961
96	1004753 858 5106 328600 2 60 59 4 4 236 944
117	1005611 20098 237 328179 1.11 59.91 589 -1.48972902345 1.4914431201859 5.1341185179856 450.39267603992
116	1025709 20118 237 328179 1.11 59.91 589 -1.4478111612181 1.4230217355671 5.3781460292907 310.62014729564
115	1045827 13259 237 328179 1.11 59.91 589 36.55 36.55 21527.95 786846.5725
114	1059086 19074 237 328179 1.11 59.91 589 83.662087249756 1431.8642075297 441735.92443464 420935046.1339
113	1078160 19086 237 328179 1.11 59.91 589 20.948356253876 24.394294369828 13504.431957722 310199.8776203
111	1097246 20586 237 328179 1.11 59.91 589 -0.33295095729656 0.039397570940498 -62.885159831444 16.97166883202
110	1117832 19079 237 328179 1.11 59.91 589 13.724799558575 20.032942326752 11030.675147053 208889.75967247
112	1136911 10903 237 328179 1.11 59.91 589 5 5 2945 14725
124	1147814 24243 1172 328558 1.265750082823 59.965753879416 588 0.099987184533 0.100012811829 58.800004038143 5.8800008092858
123	1172057 24253 1056 328442 1.254913602491 59.954930513057 588 0.09990885216 0.100091242743 58.800030152116 5.8800070639438
122	1196310 16702 1172 328558 1.265750082823 59.965753879416 588 5 5 2940 14700
121	1213012 16710 1056 328442 1.254913602491 59.954930513057 588 5 5 2940 14700
120	1229722 917 5107 328601 2 60 59 0 0 0 0
119	1230639 1272 5107 328601 2 60 59 0.022968 0.02625 1.545468 0.040493154024
118	1231911 917 5107 328601 2 60 59 5 5 295 1475
139	1232828 20072 238 328180 1.11 59.91 589 -1.4807666974456 1.4811502065199 7.0506241145567 441.46363835224
138	1252900 20089 238 328180 1.11 59.91 589 -1.4505591666033 1.4264901456169 7.4384068474956 314.36119045267
137	1272989 13259 238 328180 1.11 59.91 589 36.55 36.55 21527.95 786846.5725
136	1286248 19066 238 328180 1.11 59.91 589 59.662087249756 1413.5599062227 428220.77535204 401615563.24496
135	1305314 19092 238 328180 1.11 59.91 589 20.943047452987 24.571884274053 13561.461254909 312911.85791108
133	1324406 20666 238 328180 1.11 59.91 589 -0.30580581623687 0.022264291608543 -57.0830786476 14.3885833299
132	1345072 19070 238 328180 1.11 59.91 589 14.308440545923 20.011817535154 11160.289668541 213187.17200084
134	1364142 10903 238 328180 1.11 59.91 589 6 6 3534 21204
146	1375045 24253 1312 328707 1.305160322989 60.005164055058 588 0.099987196255 0.100012783973 58.800003973619 5.8800007963795
145	1399298 24250 1062 328448 1.254913682546 59.954930574086 588 0.099908852058 0.100091242741 58.80003013309 5.8800070601386
144	1423548 16710 1312 328707 1.305160322989 60.005164055058 588 6 6 3528 21168
143	1440258 16706 1062 328448 1.254913682546 59.954930574086 588 6 6 3528 21168
142	1456964 917 5108 328602 2 60 59 0 0 0 0
141	1457881 1272 5108 328602 2 60 59 0.022969 0.02625 1.545469 0.040493199961
140	1459153 917 5108 328602 2 60 59 6 6 354 2124
161	1460070 20060 239 328181 1.11 59.91 589 -1.4935373311629 1.4938221907668 9.4003898465371 456.67637657593
160	1480130 20095 239 328181 1.11 59.91 589 -1.4563373128698 1.4301669777918 9.7250022011764 316.48245278154
159	1500225 13259 239 328181 1.11 59.91 589 36.55 36.55 21527.95 786846.5725
158	1513484 19081 239 328181 1.11 59.91 589 35.662085342407 1394.644233109 414589.27871514 382647895.43037
157	1532565 19099 239 328181 1.11 59.91 589 20.938741842651 24.720519518588 13612.384533893 315352.60371046
155	1551664 20865 239 328181 1.11 59.91 589 -0.28442341775108 0.010778970964402 -50.997663052106 12.149687698744
154	1572529 19063 239 328181 1.11 59.91 589 14.920250861194 20.027111183674 11276.515102481 217147.66477576
156	1591592 10903 239 328181 1.11 59.91 589 7 7 4123 28861
168	1602495 24242 975 328361 1.254434801937 59.954438963315 588 0.099987228763 0.100012751236 58.800004402928 5.8800008822385
167	1626737 24248 1068 328454 1.254913762602 59.954930637151 588 0.099908851968 0.100091242748 58.800030116099 5.8800070567404
166	1650985 16696 975 328361 1.254434801937 59.954438963315 588 7 7 4116 28812
165	1667681 16697 1068 328454 1.254913762602 59.954930637151 588 7 7 4116 28812
164	1684378 917 5109 328603 2 60 59 0 0 0 0
163	1685295 1272 5109 328603 2 60 59 0.022969 0.02625 1.545469 0.040493199961
162	1686567 917 5109 328603 2 60 59 7 7 413 2891
