version 2
run SinusoidalJammingAttack-77-20170731-16:05:17-63779
attr CACCSpacing 5
attr attackAcc -30
attr attackPos 7
attr attackSpeed 150
attr attackStart 30
attr attacker 1
attr beaconInterval 0.1
attr configname SinusoidalJammingAttack
attr controller 1
attr datetime 20170731-16:05:17
attr experiment SinusoidalJammingAttack
attr fakeAcc "(1 == 4)"
attr fakePos "(1 == 2)"
attr fakeSpeed "(1 == 3)"
attr inifile omnetpp_77.ini
attr iterationvars "$leaderSpeed=120, $controller=1, $CACCSpacing=5, $sController=\"CACC\", $attacker=1, $attackStart=30, $attackSpeed=150, $attackPos=7, $attackAcc=-30, $0=5, $1=0, $nCars=8, $platoonSize=8, $nLanes=1, $beaconInterval=0.1, $priority=2, $packetSize=200, $ploegH=0.5, $leaderHeadway=1.2, $fakeSpeed=(1 == 3), $fakeAcc=(1 == 4), $fakePos=(1 == 2)"
attr iterationvarsf leaderSpeed=120,controller=1,CACCSpacing=5,sController=CACC,attacker=1,attackStart=30,attackSpeed=150,attackPos=7,attackAcc=-30,5,0,nCars=8,platoonSize=8,nLanes=1,beaconInterval=0.1,priority=2,packetSize=200,ploegH=0.5,leaderHeadway=1.2,fakeSpeed=(1_==_3),fakeAcc=(1_==_4),fakePos=(1_==_2)-
attr leaderHeadway 1.2
attr leaderSpeed 120
attr measurement "$leaderSpeed=120, $controller=1, $CACCSpacing=5, $sController=\"CACC\", $attacker=1, $attackStart=30, $attackSpeed=150, $attackPos=7, $attackAcc=-30, $0=5, $1=0, $nCars=8, $platoonSize=8, $nLanes=1, $beaconInterval=0.1, $priority=2, $packetSize=200, $ploegH=0.5, $leaderHeadway=1.2, $fakeSpeed=(1 == 3), $fakeAcc=(1 == 4), $fakePos=(1 == 2)"
attr nCars 8
attr nLanes 1
attr network scenario
attr packetSize 200
attr platoonSize 8
attr ploegH 0.5
attr priority 2
attr processid 63779
attr repetition 2
attr replication #2
attr resultdir results
attr runnumber 77
attr sController "\"CACC\""
attr seedset 2
param **.coreDebug false
param **.debug false
param **.headway 0.1s
param **.numberOfCars 8
param **.numberOfCarsPerPlatoon 8
param **.numberOfLanes 1
param **.numericController 1
param **.traffic.nCars 8
param **.traffic.nLanes 1
param **.traffic.platoonInsertDistance 5m
param **.traffic.platoonInsertHeadway 0s
param **.traffic.platoonInsertSpeed 120kmph
param **.traffic.platoonInsertTime "1 s"
param **.traffic.platoonLeaderHeadway 1.2s
param **.traffic.platoonSize 8
param **.traffic.platooningVType "\"vtypeauto\""
param **.traffic_type "\"PlatoonsTrafficManager\""
param *.**.nic.mac1609_4.bitrate 6Mbps
param *.**.nic.mac1609_4.txPower 100mW
param *.**.nic.mac1609_4.useServiceChannel false
param *.**.nic.phy80211p.analogueModels "xmldoc(\"config.xml\")"
param *.**.nic.phy80211p.decider "xmldoc(\"config.xml\")"
param *.**.nic.phy80211p.maxTXPower 100mW
param *.**.nic.phy80211p.sensitivity -94dBm
param *.**.nic.phy80211p.thermalNoise -95dBm
param *.**.nic.phy80211p.usePropagationDelay true
param *.**.nic.phy80211p.useThermalNoise true
param *.annotations.draw false
param *.connectionManager.alpha 2.0
param *.connectionManager.carrierFrequency "5.890e9 Hz"
param *.connectionManager.pMax 100mW
param *.connectionManager.sat -94dBm
param *.connectionManager.sendDirect true
param *.manager.autoShutdown true
param *.manager.commandLine "\"sumo --remote-port $port --seed $seed --configuration-file $configFile\""
param *.manager.configFile "\"./sumocfg/freeway.sumo.cfg\""
param *.manager.host "\"localhost\""
param *.manager.margin 25
param *.manager.moduleDisplayString "\"\""
param *.manager.moduleName "\"node\""
param *.manager.moduleType "\"Car\""
param *.manager.updateInterval 0.01s
param *.node[*].appl.attackStart 30s
param *.node[*].appl.attackerType 1
param *.node[*].appl.simulationDuration "60 s"
param *.node[*].appl_type "\"SimplePlatooningApp\""
param *.node[*].helper.nCars 8
param *.node[*].helper.nLanes 1
param *.node[*].helper.platoonSize 8
param *.node[*].helper_type "\"PositionHelper\""
param *.node[*].mobility.x 0
param *.node[*].mobility.y 0
param *.node[*].mobility.z 1.895
param *.node[*].prot.attackStart 30s
param *.node[*].prot.attackerType 1
param *.node[*].prot.attackingNode 3
param *.node[*].prot.beaconingInterval 0.1s
param *.node[*].prot.fakeAcc "(1 == 4)"
param *.node[*].prot.fakePos "(1 == 2)"
param *.node[*].prot.fakeSpeed "(1 == 3)"
param *.node[*].prot.maliciousAcc "-30 mpss"
param *.node[*].prot.maliciousSpeed 150kmph
param *.node[*].prot.packetSize 200
param *.node[*].prot.priority 2
param *.node[*].prot.shiftX "7 m"
param *.node[*].prot.useControllerAcceleration true
param *.node[*].protocol_type "\"SimplePlatooningBeaconing\""
param *.node[*].scenario.accHeadway 0.1s
param *.node[*].scenario.caccC1 0.5
param *.node[*].scenario.caccOmegaN "0.2 Hz"
param *.node[*].scenario.caccSpacing 5m
param *.node[*].scenario.caccXi 1
param *.node[*].scenario.controller "\"CACC\""
param *.node[*].scenario.engineTau "0.5 s"
param *.node[*].scenario.leaderHeadway 1.2s
param *.node[*].scenario.leaderOscillationFrequency "0.2 Hz"
param *.node[*].scenario.leaderSpeed 120kmph
param *.node[*].scenario.oscillationAmplitude "10 kmph"
param *.node[*].scenario.ploegH 0.5s
param *.node[*].scenario.ploegKd 0.7
param *.node[*].scenario.ploegKp 0.2
param *.node[*].scenario.startOscillating "5 s"
param *.node[*].scenario.useRealisticEngine false
param *.node[*].scenario_type "\"SinusoidalScenario\""
param *.node[*].unicast.packetLossRate 0
param *.obstacles.debug false
param *.playgroundSizeX 65000m
param *.playgroundSizeY 25000m
param *.playgroundSizeZ 50m
param *.world.use2D false
param *.world.useTorus false

vector 0  scenario.node[0].appl  distance  ETV
vector 1  scenario.node[0].appl  relativeSpeed  ETV
vector 2  scenario.node[0].appl  nodeId  ETV
vector 6  scenario.node[0].appl  acceleration  ETV
vector 7  scenario.node[0].appl  controllerAcceleration  ETV
vector 3  scenario.node[0].appl  speed  ETV
vector 4  scenario.node[0].appl  posx  ETV
vector 5  scenario.node[0].appl  posy  ETV
vector 22  scenario.node[1].appl  distance  ETV
vector 23  scenario.node[1].appl  relativeSpeed  ETV
vector 24  scenario.node[1].appl  nodeId  ETV
vector 28  scenario.node[1].appl  acceleration  ETV
vector 29  scenario.node[1].appl  controllerAcceleration  ETV
vector 25  scenario.node[1].appl  speed  ETV
vector 26  scenario.node[1].appl  posx  ETV
vector 27  scenario.node[1].appl  posy  ETV
vector 44  scenario.node[2].appl  distance  ETV
vector 45  scenario.node[2].appl  relativeSpeed  ETV
vector 46  scenario.node[2].appl  nodeId  ETV
vector 50  scenario.node[2].appl  acceleration  ETV
vector 51  scenario.node[2].appl  controllerAcceleration  ETV
vector 47  scenario.node[2].appl  speed  ETV
vector 48  scenario.node[2].appl  posx  ETV
vector 49  scenario.node[2].appl  posy  ETV
vector 66  scenario.node[3].appl  distance  ETV
vector 67  scenario.node[3].appl  relativeSpeed  ETV
vector 68  scenario.node[3].appl  nodeId  ETV
vector 72  scenario.node[3].appl  acceleration  ETV
vector 73  scenario.node[3].appl  controllerAcceleration  ETV
vector 69  scenario.node[3].appl  speed  ETV
vector 70  scenario.node[3].appl  posx  ETV
vector 71  scenario.node[3].appl  posy  ETV
vector 88  scenario.node[4].appl  distance  ETV
vector 89  scenario.node[4].appl  relativeSpeed  ETV
vector 90  scenario.node[4].appl  nodeId  ETV
vector 94  scenario.node[4].appl  acceleration  ETV
vector 95  scenario.node[4].appl  controllerAcceleration  ETV
vector 91  scenario.node[4].appl  speed  ETV
vector 92  scenario.node[4].appl  posx  ETV
vector 93  scenario.node[4].appl  posy  ETV
vector 110  scenario.node[5].appl  distance  ETV
vector 111  scenario.node[5].appl  relativeSpeed  ETV
vector 112  scenario.node[5].appl  nodeId  ETV
vector 116  scenario.node[5].appl  acceleration  ETV
vector 117  scenario.node[5].appl  controllerAcceleration  ETV
vector 113  scenario.node[5].appl  speed  ETV
vector 114  scenario.node[5].appl  posx  ETV
vector 115  scenario.node[5].appl  posy  ETV
vector 132  scenario.node[6].appl  distance  ETV
vector 133  scenario.node[6].appl  relativeSpeed  ETV
vector 134  scenario.node[6].appl  nodeId  ETV
vector 138  scenario.node[6].appl  acceleration  ETV
vector 139  scenario.node[6].appl  controllerAcceleration  ETV
vector 135  scenario.node[6].appl  speed  ETV
vector 136  scenario.node[6].appl  posx  ETV
vector 137  scenario.node[6].appl  posy  ETV
vector 154  scenario.node[7].appl  distance  ETV
vector 155  scenario.node[7].appl  relativeSpeed  ETV
vector 156  scenario.node[7].appl  nodeId  ETV
vector 160  scenario.node[7].appl  acceleration  ETV
vector 161  scenario.node[7].appl  controllerAcceleration  ETV
vector 157  scenario.node[7].appl  speed  ETV
vector 158  scenario.node[7].appl  posx  ETV
vector 159  scenario.node[7].appl  posy  ETV
vector 168  scenario.node[7].prot  frontDelay  ETV
vector 166  scenario.node[7].prot  frontDelayId  ETV
vector 146  scenario.node[6].prot  frontDelay  ETV
vector 144  scenario.node[6].prot  frontDelayId  ETV
vector 35  scenario.node[1].prot  leaderDelay  ETV
vector 33  scenario.node[1].prot  leaderDelayId  ETV
vector 36  scenario.node[1].prot  frontDelay  ETV
vector 34  scenario.node[1].prot  frontDelayId  ETV
vector 57  scenario.node[2].prot  leaderDelay  ETV
vector 55  scenario.node[2].prot  leaderDelayId  ETV
vector 79  scenario.node[3].prot  leaderDelay  ETV
vector 77  scenario.node[3].prot  leaderDelayId  ETV
vector 101  scenario.node[4].prot  leaderDelay  ETV
vector 99  scenario.node[4].prot  leaderDelayId  ETV
vector 123  scenario.node[5].prot  leaderDelay  ETV
vector 121  scenario.node[5].prot  leaderDelayId  ETV
vector 145  scenario.node[6].prot  leaderDelay  ETV
vector 143  scenario.node[6].prot  leaderDelayId  ETV
vector 167  scenario.node[7].prot  leaderDelay  ETV
vector 165  scenario.node[7].prot  leaderDelayId  ETV
vector 102  scenario.node[4].prot  frontDelay  ETV
vector 100  scenario.node[4].prot  frontDelayId  ETV
vector 80  scenario.node[3].prot  frontDelay  ETV
vector 78  scenario.node[3].prot  frontDelayId  ETV
vector 124  scenario.node[5].prot  frontDelay  ETV
vector 122  scenario.node[5].prot  frontDelayId  ETV
vector 58  scenario.node[2].prot  frontDelay  ETV
vector 56  scenario.node[2].prot  frontDelayId  ETV
vector 8  scenario.node[0].prot  nodeId  ETV
vector 9  scenario.node[0].prot  busyTime  ETV
vector 10  scenario.node[0].prot  collisions  ETV
vector 30  scenario.node[1].prot  nodeId  ETV
vector 31  scenario.node[1].prot  busyTime  ETV
vector 32  scenario.node[1].prot  collisions  ETV
vector 52  scenario.node[2].prot  nodeId  ETV
vector 53  scenario.node[2].prot  busyTime  ETV
vector 54  scenario.node[2].prot  collisions  ETV
vector 74  scenario.node[3].prot  nodeId  ETV
vector 75  scenario.node[3].prot  busyTime  ETV
vector 76  scenario.node[3].prot  collisions  ETV
vector 96  scenario.node[4].prot  nodeId  ETV
vector 97  scenario.node[4].prot  busyTime  ETV
vector 98  scenario.node[4].prot  collisions  ETV
vector 118  scenario.node[5].prot  nodeId  ETV
vector 119  scenario.node[5].prot  busyTime  ETV
vector 120  scenario.node[5].prot  collisions  ETV
vector 140  scenario.node[6].prot  nodeId  ETV
vector 141  scenario.node[6].prot  busyTime  ETV
vector 142  scenario.node[6].prot  collisions  ETV
vector 162  scenario.node[7].prot  nodeId  ETV
vector 163  scenario.node[7].prot  busyTime  ETV
vector 164  scenario.node[7].prot  collisions  ETV
7	232	1.11	1.264609664986e-06
7	788	1.21	1.2370558053476e-06
7	1344	1.31	1.1922643139428e-06
7	1900	1.41	1.1341353030048e-06
7	2456	1.51	1.0661075364737e-06
7	3012	1.61	9.9117950469463e-07
7	3568	1.71	9.1193474816009e-07
7	4124	1.81	8.3057002342457e-07
7	4680	1.91	7.4892560064654e-07
7	5244	2.01	6.6851609403784e-07
7	5800	2.11	5.9056183232542e-07
7	6356	2.21	5.1602003736662e-07
7	6912	2.31	4.4561458878434e-07
7	7468	2.41	3.7986517753552e-07
7	8024	2.51	3.1911461206846e-07
7	8580	2.61	2.6355444049386e-07
7	9136	2.71	2.1324864718508e-07
7	9692	2.81	1.6815555881067e-07
7	10248	2.91	1.2814749794643e-07
7	10812	3.01	9.3028553749264e-08
7	11368	3.11	6.255026363533e-08
7	11924	3.21	3.6425589655664e-08
7	12480	3.31	1.4340962195547e-08
7	13036	3.41	-4.0332679418498e-09
7	13592	3.51	-1.9034231968362e-08
7	14148	3.61	-3.0998883460143e-08
7	14704	3.71	-4.0258086642098e-08
7	15260	3.81	-4.7131671010447e-08
7	15816	3.91	-5.1925063360159e-08
7	16380	4.01	-5.4926061920924e-08
7	16936	4.11	-5.6402775783226e-08
7	17492	4.21	-5.6602530662531e-08
7	18048	4.31	-5.5751151251116e-08
7	18604	4.41	-5.4052726738973e-08
7	19160	4.51	-5.1689909241759e-08
7	19716	4.61	-4.8824482234977e-08
7	20272	4.71	-4.5598198994412e-08
7	20828	4.81	-4.2133798672239e-08
7	21384	4.91	-3.8536192903393e-08
7	21949	5.01	-3.4893794520485e-08
7	22506	5.11	0.34814783973202
7	23063	5.21	0.68726932535991
7	23620	5.31	1.0064705905053
7	24177	5.41	1.2963311346507
7	24734	5.51	1.5
7	25291	5.61	1.5
7	25848	5.71	1.5
7	26405	5.81	1.5
7	26962	5.91	1.5
7	27527	6.01	1.5
7	28084	6.11	1.5
7	28641	6.21	1.5
7	29198	6.31	1.5
7	29755	6.41	1.5
7	30312	6.51	1.4919234058593
7	30869	6.61	1.2264993209595
7	31426	6.71	0.92305383326438
7	31983	6.81	0.5890810138258
7	32540	6.91	0.23235621116515
7	33105	7.01	-0.13919560237429
7	33662	7.11	-0.51762846938546
7	34219	7.21	-0.89509994250727
7	34776	7.31	-1.2639902910536
7	35333	7.41	-1.5
7	35890	7.51	-1.5
7	36447	7.61	-1.5
7	37004	7.71	-1.5
7	37561	7.81	-1.5
7	38118	7.91	-1.5
7	38683	8.01	-1.5
7	39240	8.11	-1.5
7	39797	8.21	-1.5
7	40354	8.31	-1.5
7	40911	8.41	-1.5
7	41468	8.51	-1.5
7	42025	8.61	-1.5
7	42582	8.71	-1.5
7	43139	8.81	-1.5
7	43696	8.91	-1.5
7	44261	9.01	-1.5
7	44818	9.11	-1.5
7	45375	9.21	-1.5
7	45932	9.31	-1.5
7	46489	9.41	-1.5
7	47046	9.51	-1.178453590773
7	47603	9.61	-0.73985166452546
7	48160	9.71	-0.29046662090423
7	48717	9.81	0.15868205640434
7	49274	9.91	0.59737147663756
7	49839	10.01	1.0162504339375
7	50396	10.11	1.4069035496629
7	50953	10.21	1.5
7	51510	10.31	1.5
7	52067	10.41	1.5
7	52624	10.51	1.5
7	53181	10.61	1.5
7	53738	10.71	1.5
7	54295	10.81	1.5
7	54852	10.91	1.5
7	55417	11.01	1.5
7	55974	11.11	1.5
7	56531	11.21	1.5
7	57088	11.31	1.5
7	57645	11.41	1.5
7	58202	11.51	1.5
7	58759	11.61	1.5
7	59316	11.71	1.5
7	59873	11.81	1.5
7	60430	11.91	1.1420569522446
7	60995	12.01	0.73271074165216
7	61552	12.11	0.30763491694659
7	62109	12.21	-0.12290183408495
7	62666	12.31	-0.5491742287245
7	63223	12.41	-0.96209331723149
7	63780	12.51	-1.3532900275905
7	64337	12.61	-1.5
7	64894	12.71	-1.5
7	65451	12.81	-1.5
7	66008	12.91	-1.5
7	66573	13.01	-1.5
7	67130	13.11	-1.5
7	67687	13.21	-1.5
7	68244	13.31	-1.5
7	68801	13.41	-1.5
7	69358	13.51	-1.5
7	69915	13.61	-1.5
7	70472	13.71	-1.5
7	71029	13.81	-1.5
7	71586	13.91	-1.5
7	72151	14.01	-1.5
7	72708	14.11	-1.5
7	73265	14.21	-1.5
7	73822	14.31	-1.5
7	74379	14.41	-1.300830579343
7	74936	14.51	-0.88835736023715
7	75493	14.61	-0.45792464377335
7	76050	14.71	-0.020297800504288
7	76607	14.81	0.41435934755211
7	77164	14.91	0.83657487482698
7	77729	15.01	1.2376491838765
7	78286	15.11	1.5
7	78843	15.21	1.5
7	79400	15.31	1.5
7	79957	15.41	1.5
7	80514	15.51	1.5
7	81071	15.61	1.5
7	81628	15.71	1.5
7	82185	15.81	1.5
7	82742	15.91	1.5
7	83307	16.01	1.5
7	83864	16.11	1.5
7	84421	16.21	1.5
7	84978	16.31	1.5
7	85535	16.41	1.5
7	86092	16.51	1.5
7	86649	16.61	1.5
7	87206	16.71	1.5
7	87763	16.81	1.5
7	88320	16.91	1.2451238477297
7	88885	17.01	0.83347870134542
7	89442	17.11	0.40470958876118
7	89999	17.21	-0.030598062226161
7	90556	17.31	-0.46243980387321
7	91113	17.41	-0.88148335305221
7	91670	17.51	-1.2791500631775
7	92227	17.61	-1.5
7	92784	17.71	-1.5
7	93341	17.81	-1.5
7	93898	17.91	-1.5
7	94463	18.01	-1.5
7	95020	18.11	-1.5
7	95577	18.21	-1.5
7	96134	18.31	-1.5
7	96691	18.41	-1.5
7	97248	18.51	-1.5
7	97805	18.61	-1.5
7	98362	18.71	-1.5
7	98919	18.81	-1.5
7	99476	18.91	-1.5
7	100041	19.01	-1.5
7	100598	19.11	-1.5
7	101155	19.21	-1.5
7	101712	19.31	-1.5
7	102269	19.41	-1.2657245815155
7	102826	19.51	-0.85377693481785
7	103383	19.61	-0.42439560038367
7	103940	19.71	0.011767371265513
7	104497	19.81	0.44464851836144
7	105054	19.91	0.86486384400278
7	105619	20.01	1.2637899041103
7	106176	20.11	1.5
7	106733	20.21	1.5
7	107290	20.31	1.5
7	107847	20.41	1.5
7	108404	20.51	1.5
7	108961	20.61	1.5
7	109518	20.71	1.5
7	110075	20.81	1.5
7	110632	20.91	1.5
7	111197	21.01	1.5
7	111754	21.11	1.5
7	112311	21.21	1.5
7	112868	21.31	1.5
7	113425	21.41	1.5
7	113982	21.51	1.5
7	114539	21.61	1.5
7	115096	21.71	1.5
7	115653	21.81	1.5
7	116210	21.91	1.2580915517739
7	116775	22.01	0.84625491634584
7	117332	22.11	0.41709956367264
7	117889	22.21	-0.018747163545136
7	118446	22.31	-0.45124369149665
7	119003	22.41	-0.87102520538844
7	119560	22.51	-1.269484879462
7	120117	22.61	-1.5
7	120674	22.71	-1.5
7	121231	22.81	-1.5
7	121788	22.91	-1.5
7	122353	23.01	-1.5
7	122910	23.11	-1.5
7	123467	23.21	-1.5
7	124024	23.31	-1.5
7	124581	23.41	-1.5
7	125138	23.51	-1.5
7	125695	23.61	-1.5
7	126252	23.71	-1.5
7	126809	23.81	-1.5
7	127366	23.91	-1.5
7	127931	24.01	-1.5
7	128488	24.11	-1.5
7	129045	24.21	-1.5
7	129602	24.31	-1.5
7	130159	24.41	-1.260923965114
7	130716	24.51	-0.84904615684758
7	131273	24.61	-0.41980696481334
7	131830	24.71	0.016157099443966
7	132387	24.81	0.44879633965816
7	132944	24.91	0.86873882266688
7	133509	25.01	1.2673715557178
7	134066	25.11	1.5
7	134623	25.21	1.5
7	135180	25.31	1.5
7	135737	25.41	1.5
7	136294	25.51	1.5
7	136851	25.61	1.5
7	137408	25.71	1.5
7	137965	25.81	1.5
7	138522	25.91	1.5
7	139087	26.01	1.5
7	139644	26.11	1.5
7	140201	26.21	1.5
7	140758	26.31	1.5
7	141315	26.41	1.5
7	141872	26.51	1.5
7	142429	26.61	1.5
7	142986	26.71	1.5
7	143543	26.81	1.5
7	144100	26.91	1.2598728518647
7	144665	27.01	0.8480103225158
7	145222	27.11	0.41880224309308
7	145779	27.21	-0.017118277440183
7	146336	27.31	-0.44970455708226
7	146893	27.41	-0.86958730431697
7	147450	27.51	-1.2681558149808
7	148007	27.61	-1.5
7	148564	27.71	-1.5
7	149121	27.81	-1.5
7	149678	27.91	-1.5
7	150243	28.01	-1.5
7	150800	28.11	-1.5
7	151357	28.21	-1.5
7	151914	28.31	-1.5
7	152471	28.41	-1.5
7	153028	28.51	-1.5
7	153585	28.61	-1.5
7	154142	28.71	-1.5
7	154699	28.81	-1.5
7	155256	28.91	-1.5
7	155821	29.01	-1.5
7	156378	29.11	-1.5
7	156935	29.21	-1.5
7	157492	29.31	-1.5
7	158049	29.41	-1.2602629232501
7	158606	29.51	-0.84839472385493
7	159163	29.61	-0.41917509845157
7	159720	29.71	0.016761581288016
7	160277	29.81	0.44936751475895
7	160834	29.91	0.86927243012207
7	161399	30.01	1.2678647739113
7	161956	30.11	1.5
7	162513	30.21	1.5
7	163070	30.31	1.5
7	163627	30.41	1.5
7	164184	30.51	1.5
7	164741	30.61	1.5
7	165298	30.71	1.5
7	165855	30.81	1.5
7	166412	30.91	1.5
7	166977	31.01	1.5
7	167534	31.11	1.5
7	168091	31.21	1.5
7	168648	31.31	1.5
7	169205	31.41	1.5
7	169762	31.51	1.5
7	170319	31.61	1.5
7	170876	31.71	1.5
7	171433	31.81	1.5
7	171990	31.91	1.2601181665228
7	172555	32.01	0.84825207129951
7	173112	32.11	0.41903673064589
7	173669	32.21	-0.016893952361208
7	174226	32.31	-0.44949259223428
7	174783	32.41	-0.8693892809349
7	175340	32.51	-1.2679727801759
7	175897	32.61	-1.5
7	176454	32.71	-1.5
7	177011	32.81	-1.5
7	177568	32.91	-1.5
7	178133	33.01	-1.5
7	178690	33.11	-1.5
7	179247	33.21	-1.5
7	179804	33.31	-1.5
7	180361	33.41	-1.5
7	180918	33.51	-1.5
7	181475	33.61	-1.5
7	182032	33.71	-1.5
7	182589	33.81	-1.5
7	183146	33.91	-1.5
7	183711	34.01	-1.5
7	184268	34.11	-1.5
7	184825	34.21	-1.5
7	185382	34.31	-1.5
7	185939	34.41	-1.2601718862023
7	186496	34.51	-0.84830501011423
7	187053	34.61	-0.4190880793765
7	187610	34.71	0.016844829036998
7	188167	34.81	0.44944617558727
7	188724	34.91	0.86934591722826
7	189289	35.01	1.2679326987089
7	189846	35.11	1.5
7	190403	35.21	1.5
7	190960	35.31	1.5
7	191517	35.41	1.5
7	192074	35.51	1.5
7	192631	35.61	1.5
7	193188	35.71	1.5
7	193745	35.81	1.5
7	194302	35.91	1.5
7	194867	36.01	1.5
7	195424	36.11	1.5
7	195981	36.21	1.5
7	196538	36.31	1.5
7	197095	36.41	1.5
7	197652	36.51	1.5
7	198209	36.61	1.5
7	198766	36.71	1.5
7	199323	36.81	1.5
7	199880	36.91	1.2601519506582
7	200445	37.01	0.8482853643515
7	201002	37.11	0.41906902369898
7	201559	37.21	-0.016863058859116
7	202116	37.31	-0.4494634009528
7	202673	37.41	-0.86936200963788
7	203230	37.51	-1.2679475730689
7	203787	37.61	-1.5
7	204344	37.71	-1.5
7	204901	37.81	-1.5
7	205458	37.91	-1.5
7	206023	38.01	-1.5
7	206580	38.11	-1.5
7	207137	38.21	-1.5
7	207694	38.31	-1.5
7	208251	38.41	-1.5
7	208808	38.51	-1.5
7	209365	38.61	-1.5
7	209922	38.71	-1.5
7	210479	38.81	-1.5
7	211036	38.91	-1.5
7	211601	39.01	-1.5
7	212158	39.11	-1.5
7	212715	39.21	-1.5
7	213272	39.31	-1.5
7	213829	39.41	-1.2601593487987
7	214386	39.51	-0.84829265495303
7	214943	39.61	-0.41907609531791
7	215500	39.71	0.016856293717851
7	216057	39.81	0.44945700856871
7	216614	39.91	0.86935603769744
7	217179	40.01	1.2679420531505
7	217736	40.11	1.5
7	218293	40.21	1.5
7	218850	40.31	1.5
7	219407	40.41	1.5
7	219964	40.51	1.5
6	232	1.11	1.8587371641843e-07
6	788	1.21	3.7715039979958e-07
6	1344	1.31	5.2730015909219e-07
6	1900	1.41	6.4101826069418e-07
6	2456	1.51	7.2280812446479e-07
6	3012	1.61	7.7694011224594e-07
6	3568	1.71	8.0741315855448e-07
6	4124	1.81	8.1792990158647e-07
6	4680	1.91	8.1188602507609e-07
6	5244	2.01	7.9236670558203e-07
6	5800	2.11	7.6214163868826e-07
6	6356	2.21	7.2367640768789e-07
6	6912	2.31	6.7914172063865e-07
6	7468	2.41	6.3042691067494e-07
6	8024	2.51	5.791562784907e-07
6	8580	2.61	5.2670969807878e-07
6	9136	2.71	4.7423895921384e-07
6	9692	2.81	4.226883731917e-07
6	10248	2.91	3.7281679965417e-07
6	10812	3.01	3.2521825232834e-07
6	11368	3.11	2.8033753096679e-07
6	11924	3.21	2.3849224817241e-07
6	12480	3.31	1.9988561916762e-07
6	13036	3.41	1.6463133079014e-07
6	13592	3.51	1.3275709420668e-07
6	14148	3.61	1.0422880336591e-07
6	14704	3.71	7.8954798254927e-08
6	15260	3.81	5.6805049553077e-08
6	15816	3.91	3.7617553516611e-08
6	16380	4.01	2.1201884692346e-08
6	16936	4.11	7.354117315117e-09
6	17492	4.21	-4.1374903503311e-09
6	18048	4.31	-1.3491074923877e-08
6	18604	4.41	-2.0921930854456e-08
6	19160	4.51	-2.6641799877325e-08
6	19716	4.61	-3.0856028843118e-08
6	20272	4.71	-3.3759306461434e-08
6	20828	4.81	-3.5534952758098e-08
6	21384	4.91	-3.6354919075166e-08
6	21949	5.01	-3.6375524814503e-08
6	22506	5.11	0.0068263931019885
6	23063	5.21	0.074594779098902
6	23620	5.31	0.19005129180201
6	24177	5.41	0.34050267454901
6	24734	5.51	0.51301634170429
6	25291	5.61	0.6902545459468
6	25848	5.71	0.83572669343468
6	26405	5.81	0.95506452230651
6	26962	5.91	1.0529631073332
6	27527	6.01	1.1332740451195
6	28084	6.11	1.1991569863937
6	28641	6.21	1.2532039452594
6	29198	6.31	1.2975412760781
6	29755	6.41	1.3339133300356
6	30312	6.51	1.3635927180715
6	30869	6.61	1.3702053544215
6	31426	6.71	1.3272611853779
6	31983	6.81	1.2373810849141
6	32540	6.91	1.1040433684336
6	33105	7.01	0.93147091325463
6	33662	7.11	0.72451589912248
6	34219	7.21	0.48854317732108
6	34776	7.31	0.22931329054146
6	35333	7.41	-0.044839403605579
6	35890	7.51	-0.30626147870336
6	36447	7.61	-0.52071863355891
6	37004	7.71	-0.69664819594024
6	37561	7.81	-0.84097171333752
6	38118	7.91	-0.95936726546597
6	38683	8.01	-1.0564928553684
6	39240	8.11	-1.1361696679188
6	39797	8.21	-1.2015324056335
6	40354	8.31	-1.2551526163939
6	40911	8.41	-1.2991398651295
6	41468	8.51	-1.3352247298471
6	42025	8.61	-1.3648268872679
6	42582	8.71	-1.3891109667817
6	43139	8.81	-1.4090323701247
6	43696	8.91	-1.4253748594882
6	44261	9.01	-1.4387813928529
6	44818	9.11	-1.4497794197055
6	45375	9.21	-1.4588016323373
6	45932	9.31	-1.4662029891298
6	46489	9.41	-1.4722746795918
6	47046	9.51	-1.4696249147882
6	47603	9.61	-1.3967850640618
6	48160	9.71	-1.2587757643061
6	48717	9.81	-1.066095221988
6	49274	9.91	-0.82923335039382
6	49839	10.01	-0.55852907855325
6	50396	10.11	-0.26404116091285
6	50953	10.21	0.03943269852158
6	51510	10.31	0.30182609737963
6	52067	10.41	0.5170800760304
6	52624	10.51	0.69366331145844
6	53181	10.61	0.83852306842829
6	53738	10.71	0.95735852377814
6	54295	10.81	1.0548449875394
6	54852	10.91	1.1348178423468
6	55417	11.01	1.2004234378246
6	55974	11.11	1.2542428765379
6	56531	11.21	1.2983935615857
6	57088	11.31	1.3346125010031
6	57645	11.41	1.3643246463779
6	58202	11.51	1.3886989543209
6	58759	11.61	1.4086943764035
6	59316	11.71	1.4250975869132
6	59873	11.81	1.438553932767
6	60430	11.91	1.4345627372599
6	60995	12.01	1.3623449188415
6	61552	12.11	1.2299875654037
6	62109	12.21	1.0461448397272
6	62666	12.31	0.81967864243424
6	63223	12.41	0.55952045898948
6	63780	12.51	0.27454262943465
6	64337	12.61	-0.022341644934443
6	64894	12.71	-0.28780548062457
6	65451	12.81	-0.50557828691211
6	66008	12.91	-0.68422783830826
6	66573	13.01	-0.83078269407011
6	67130	13.11	-0.95100872083407
6	67687	13.21	-1.0496359374898
6	68244	13.31	-1.1305446069947
6	68801	13.41	-1.1969178964684
6	69358	13.51	-1.2513671116459
6	69915	13.61	-1.2960344327446
6	70472	13.71	-1.332677193669
6	71029	13.81	-1.3627370202968
6	71586	13.91	-1.3873965479647
6	72151	14.01	-1.4076259495631
6	72708	14.11	-1.4242211047723
6	73265	14.21	-1.4378349121337
6	73822	14.31	-1.4490029758569
6	74379	14.41	-1.4542593951873
6	74936	14.51	-1.4067454390094
6	75493	14.61	-1.2938574955413
6	76050	14.71	-1.1248409052385
6	76607	14.81	-0.90912582144114
6	77164	14.91	-0.65618298377643
6	77729	15.01	-0.37539052555147
6	78286	15.11	-0.078063005102535
6	78843	15.21	0.20543869666909
6	79400	15.31	0.438008835728
6	79957	15.41	0.62879735390737
6	80514	15.51	0.78531039043099
6	81071	15.61	0.9137055938524
6	81628	15.71	1.0190343806897
6	82185	15.81	1.1054406719012
6	82742	15.91	1.1763239259942
6	83307	16.01	1.2344728829795
6	83864	16.11	1.2821752809813
6	84421	16.21	1.3213078620829
6	84978	16.31	1.3534102084591
6	85535	16.41	1.3797453137308
6	86092	16.51	1.4013492725667
6	86649	16.61	1.4190720434684
6	87206	16.71	1.4336108884464
6	87763	16.81	1.4455378052055
6	88320	16.91	1.450294906531
6	88885	17.01	1.3935559567486
6	89442	17.11	1.273336870139
6	89999	17.21	1.0986742440473
6	90556	17.31	0.87879676590887
6	91113	17.41	0.62298329275308
6	91670	17.51	0.34043137852748
6	92227	17.61	0.043031849074282
6	92784	17.71	-0.23417644595867
6	93341	17.81	-0.46158379950043
6	93898	17.91	-0.64813703535762
6	94463	18.01	-0.80117566522802
6	95020	18.11	-0.92672064505877
6	95577	18.21	-1.0297112558206
6	96134	18.31	-1.1141994282617
6	96691	18.41	-1.1835091568834
6	97248	18.51	-1.240367274923
6	97805	18.61	-1.2870107353912
6	98362	18.71	-1.3252746188869
6	98919	18.81	-1.3566643306589
6	99476	18.91	-1.3824148273436
6	100041	19.01	-1.4035392035204
6	100598	19.11	-1.420868549603
6	101155	19.21	-1.4350846492
6	101712	19.31	-1.4467468023348
6	102269	19.41	-1.4517201941764
6	102826	19.51	-1.3984004323888
6	103383	19.61	-1.2808993810097
6	103940	19.71	-1.1083308503785
6	104497	19.81	-0.88999806036867
6	105054	19.91	-0.63525086466854
6	105619	20.01	-0.35335363991464
6	106176	20.11	-0.055983891308387
6	106733	20.21	0.22355126013309
6	107290	20.31	0.45286744637281
6	107847	20.41	0.64098658988812
6	108404	20.51	0.79530980944469
6	108961	20.61	0.92190860023891
6	109518	20.71	1.0257637030342
6	110075	20.81	1.1109610600442
6	110632	20.91	1.1808525670212
6	111197	21.01	1.2381879459461
6	111754	21.11	1.2852229265711
6	112311	21.21	1.3238079929607
6	112868	21.31	1.3554611865736
6	113425	21.41	1.3814278301389
6	113982	21.51	1.4027295220423
6	114539	21.61	1.4202043287803
6	115096	21.71	1.4345397567773
6	115653	21.81	1.4462998007623
6	116210	21.91	1.4512038299465
6	116775	22.01	1.3966149622043
6	117332	22.11	1.2781048258539
6	117889	22.21	1.104758616826
6	118446	22.31	0.88585193074024
6	119003	22.41	0.63070830476093
6	119560	22.51	0.34856734380924
6	120117	22.61	0.051185654368879
6	120674	22.71	-0.22748748564823
6	121231	22.81	-0.45609652228151
6	121788	22.91	-0.64363555681979
6	122353	23.01	-0.79748288496191
6	122910	23.11	-0.92369127904561
6	123467	23.21	-1.0272261205614
6	124024	23.31	-1.1121607517779
6	124581	23.41	-1.1818367320963
6	125138	23.51	-1.2389953040923
6	125695	23.61	-1.2858852414531
6	126252	23.71	-1.324351321847
6	126809	23.81	-1.355906905502
6	127366	23.91	-1.3817934749042
6	127931	24.01	-1.403029478103
6	128488	24.11	-1.4204503972238
6	129045	24.21	-1.4347416186069
6	129602	24.31	-1.4464653977718
6	130159	24.41	-1.4513952146871
6	130716	24.51	-1.397277320676
6	131273	24.61	-1.2791416668563
6	131830	24.71	-1.1060840673039
6	132387	24.81	-0.88739036841758
6	132944	24.91	-0.63239387292811
6	133509	25.01	-0.35034337811126
6	134066	25.11	-0.052966136912147
6	134623	25.21	0.22602686982154
6	135180	25.31	0.45489830857193
6	135737	25.41	0.64265260423966
6	136294	25.51	0.7966765214853
6	136851	25.61	0.92302978013734
6	137408	25.71	1.0266834610576
6	137965	25.81	1.1117155819754
6	138522	25.91	1.1814715378058
6	139087	26.01	1.2386957175771
6	139644	26.11	1.2856394761641
6	140201	26.21	1.3241497087101
6	140758	26.31	1.3557415125085
6	141315	26.41	1.3816577950429
6	141872	26.51	1.4029181733591
6	142429	26.61	1.4203590885664
6	142986	26.71	1.4346667137048
6	143543	26.81	1.4464039496623
6	144100	26.91	1.4513241957715
6	144665	27.01	1.3970315218245
6	145222	27.11	1.2787568961947
6	145779	27.21	1.1055921925461
6	146336	27.31	0.8868194531928
6	146893	27.41	0.63176835684402
6	147450	27.51	0.34968428947408
6	148007	27.61	0.052305397196051
6	148564	27.71	-0.22656890652399
6	149121	27.81	-0.45534296745871
6	149678	27.91	-0.64301737940156
6	150243	28.01	-0.79697576417033
6	150800	28.11	-0.92327526336575
6	151357	28.21	-1.0268848428062
6	151914	28.31	-1.1118807851517
6	152471	28.41	-1.1816070619503
6	153028	28.51	-1.2388068945782
6	153585	28.61	-1.2857306800278
6	154142	28.71	-1.3242245276466
6	154699	28.81	-1.3558028900952
6	155256	28.91	-1.3817081460417
6	155821	29.01	-1.4029594787168
6	156378	29.11	-1.4203929733462
6	156935	29.21	-1.4346945110262
6	157492	29.31	-1.446426753148
6	158049	29.41	-1.4513505510308
6	158606	29.51	-1.3971227384744
6	159163	29.61	-1.2788996857282
6	159720	29.71	-1.1057747287524
6	160277	29.81	-0.88703132157306
6	160834	29.91	-0.63200048778285
6	161399	30.01	-0.34992887930017
6	161956	30.11	-0.052550599748002
6	162513	30.21	0.22636775502534
6	163070	30.31	0.45517795316812
6	163627	30.41	0.64288201020943
6	164184	30.51	0.79686471428317
6	164741	30.61	0.92318416377992
6	165298	30.71	1.0268101094155
6	165855	30.81	1.1118194777403
6	166412	30.91	1.181556768519
6	166977	31.01	1.2387656364474
6	167534	31.11	1.2856968339904
6	168091	31.21	1.3241967621056
6	168648	31.31	1.3557801126808
6	169205	31.41	1.3816894606293
6	169762	31.51	1.4029441501705
6	170319	31.61	1.4203803985993
6	170876	31.71	1.434684195354
6	171433	31.81	1.4464182907048
6	171990	31.91	1.4513407705138
6	172555	32.01	1.3970888876891
6	173112	32.11	1.2788466960821
6	173669	32.21	1.1057069889901
6	174226	32.31	0.88695269654835
6	174783	32.41	0.63191434325702
6	175340	32.51	0.3498381112415
6	175897	32.61	0.052459604304289
6	176454	32.71	-0.22644240298533
6	177011	32.81	-0.45523919049515
6	177568	32.91	-0.64293224614715
6	178133	33.01	-0.79690592524955
6	178690	33.11	-0.92321797112547
6	179247	33.21	-1.0268378432137
6	179804	33.31	-1.1118422291148
6	180361	33.41	-1.1815754325717
6	180918	33.51	-1.2387809474724
6	181475	33.61	-1.2857093943644
6	182032	33.71	-1.3242070659885
6	182589	33.81	-1.3557885654535
6	183146	33.91	-1.3816963948479
6	183711	34.01	-1.4029498386442
6	184268	34.11	-1.4203850651299
6	184825	34.21	-1.4346880235344
6	185382	34.31	-1.4464214311445
6	185939	34.41	-1.4513444000933
6	186496	34.51	-1.3971014498217
6	187053	34.61	-1.2788663607076
6	187610	34.71	-1.1057321274301
6	188167	34.81	-0.88698187454312
6	188724	34.91	-0.63194631176131
6	189289	35.01	-0.34987179555372
6	189846	35.11	-0.052493373000573
6	190403	35.21	0.22641470089155
6	190960	35.31	0.45521646513009
6	191517	35.41	0.64291360343205
6	192074	35.51	0.79689063173021
6	192631	35.61	0.92320542511359
6	193188	35.71	1.0268275511145
6	193745	35.81	1.1118337860083
6	194302	35.91	1.1815685062835
6	194867	36.01	1.2387752655023
6	195424	36.11	1.2857047331693
6	195981	36.21	1.3242032421843
6	196538	36.31	1.3557854286027
6	197095	36.41	1.3816938215371
6	197652	36.51	1.4029477276331
6	198209	36.61	1.4203833333653
6	198766	36.71	1.4346866028845
6	199323	36.81	1.4464202657166
6	199880	36.91	1.4513430531451
6	200445	37.01	1.397096787975
6	201002	37.11	1.2788590631018
6	201559	37.21	1.105722798475
6	202116	37.31	0.88697104649569
6	202673	37.41	0.63193444814758
6	203230	37.51	0.34985929519777
6	203787	37.61	0.052480841328872
6	204344	37.71	-0.22642498122849
6	204901	37.81	-0.4552248985874
6	205458	37.91	-0.64292052180548
6	206023	38.01	-0.79689630720523
6	206580	38.11	-0.92321008097898
6	207137	38.21	-1.0268313705467
6	207694	38.31	-1.1118369192744
6	208251	38.41	-1.1815710766527
6	208808	38.51	-1.2387773741011
6	209365	38.61	-1.2857064629564
6	209922	38.71	-1.3242046612127
6	210479	38.81	-1.3557865927005
6	211036	38.91	-1.3816947765022
6	211601	39.01	-1.4029485110377
6	212158	39.11	-1.4203839760292
6	212715	39.21	-1.4346871300937
6	213272	39.31	-1.4464206982126
6	213829	39.41	-1.4513435530041
6	214386	39.51	-1.3970985180023
6	214943	39.61	-1.278861771268
6	215500	39.71	-1.1057262604808
6	216057	39.81	-0.88697506482021
6	216614	39.91	-0.63193885077268
6	217179	40.01	-0.34986393411884
6	217736	40.11	-0.052485491870868
6	218293	40.21	0.22642116616325
6	218850	40.31	0.455221768906
6	219407	40.41	0.64291795437512
6	219964	40.51	0.79689420101801
5	232	1.11	36.55
5	788	1.21	36.55
5	1344	1.31	36.55
5	1900	1.41	36.55
5	2456	1.51	36.55
5	3012	1.61	36.55
5	3568	1.71	36.55
5	4124	1.81	36.55
5	4680	1.91	36.55
5	5244	2.01	36.55
5	5800	2.11	36.55
5	6356	2.21	36.55
5	6912	2.31	36.55
5	7468	2.41	36.55
5	8024	2.51	36.55
5	8580	2.61	36.55
5	9136	2.71	36.55
5	9692	2.81	36.55
5	10248	2.91	36.55
5	10812	3.01	36.55
5	11368	3.11	36.55
5	11924	3.21	36.55
5	12480	3.31	36.55
5	13036	3.41	36.55
5	13592	3.51	36.55
5	14148	3.61	36.55
5	14704	3.71	36.55
5	15260	3.81	36.55
5	15816	3.91	36.55
5	16380	4.01	36.55
5	16936	4.11	36.55
5	17492	4.21	36.55
5	18048	4.31	36.55
5	18604	4.41	36.55
5	19160	4.51	36.55
5	19716	4.61	36.55
5	20272	4.71	36.55
5	20828	4.81	36.55
5	21384	4.91	36.55
5	21949	5.01	36.55
5	22506	5.11	36.55
5	23063	5.21	36.55
5	23620	5.31	36.55
5	24177	5.41	36.55
5	24734	5.51	36.55
5	25291	5.61	36.55
5	25848	5.71	36.55
5	26405	5.81	36.55
5	26962	5.91	36.55
5	27527	6.01	36.55
5	28084	6.11	36.55
5	28641	6.21	36.55
5	29198	6.31	36.55
5	29755	6.41	36.55
5	30312	6.51	36.55
5	30869	6.61	36.55
5	31426	6.71	36.55
5	31983	6.81	36.55
5	32540	6.91	36.55
5	33105	7.01	36.55
5	33662	7.11	36.55
5	34219	7.21	36.55
5	34776	7.31	36.55
5	35333	7.41	36.55
5	35890	7.51	36.55
5	36447	7.61	36.55
5	37004	7.71	36.55
5	37561	7.81	36.55
5	38118	7.91	36.55
5	38683	8.01	36.55
5	39240	8.11	36.55
5	39797	8.21	36.55
5	40354	8.31	36.55
5	40911	8.41	36.55
5	41468	8.51	36.55
5	42025	8.61	36.55
5	42582	8.71	36.55
5	43139	8.81	36.55
5	43696	8.91	36.55
5	44261	9.01	36.55
5	44818	9.11	36.55
5	45375	9.21	36.55
5	45932	9.31	36.55
5	46489	9.41	36.55
5	47046	9.51	36.55
5	47603	9.61	36.55
5	48160	9.71	36.55
5	48717	9.81	36.55
5	49274	9.91	36.55
5	49839	10.01	36.55
5	50396	10.11	36.55
5	50953	10.21	36.55
5	51510	10.31	36.55
5	52067	10.41	36.55
5	52624	10.51	36.55
5	53181	10.61	36.55
5	53738	10.71	36.55
5	54295	10.81	36.55
5	54852	10.91	36.55
5	55417	11.01	36.55
5	55974	11.11	36.55
5	56531	11.21	36.55
5	57088	11.31	36.55
5	57645	11.41	36.55
5	58202	11.51	36.55
5	58759	11.61	36.55
5	59316	11.71	36.55
5	59873	11.81	36.55
5	60430	11.91	36.55
5	60995	12.01	36.55
5	61552	12.11	36.55
5	62109	12.21	36.55
5	62666	12.31	36.55
5	63223	12.41	36.55
5	63780	12.51	36.55
5	64337	12.61	36.55
5	64894	12.71	36.55
5	65451	12.81	36.55
5	66008	12.91	36.55
5	66573	13.01	36.55
5	67130	13.11	36.55
5	67687	13.21	36.55
5	68244	13.31	36.55
5	68801	13.41	36.55
5	69358	13.51	36.55
5	69915	13.61	36.55
5	70472	13.71	36.55
5	71029	13.81	36.55
5	71586	13.91	36.55
5	72151	14.01	36.55
5	72708	14.11	36.55
5	73265	14.21	36.55
5	73822	14.31	36.55
5	74379	14.41	36.55
5	74936	14.51	36.55
5	75493	14.61	36.55
5	76050	14.71	36.55
5	76607	14.81	36.55
5	77164	14.91	36.55
5	77729	15.01	36.55
5	78286	15.11	36.55
5	78843	15.21	36.55
5	79400	15.31	36.55
5	79957	15.41	36.55
5	80514	15.51	36.55
5	81071	15.61	36.55
5	81628	15.71	36.55
5	82185	15.81	36.55
5	82742	15.91	36.55
5	83307	16.01	36.55
5	83864	16.11	36.55
5	84421	16.21	36.55
5	84978	16.31	36.55
5	85535	16.41	36.55
5	86092	16.51	36.55
5	86649	16.61	36.55
5	87206	16.71	36.55
5	87763	16.81	36.55
5	88320	16.91	36.55
5	88885	17.01	36.55
5	89442	17.11	36.55
5	89999	17.21	36.55
5	90556	17.31	36.55
5	91113	17.41	36.55
5	91670	17.51	36.55
5	92227	17.61	36.55
5	92784	17.71	36.55
5	93341	17.81	36.55
5	93898	17.91	36.55
5	94463	18.01	36.55
5	95020	18.11	36.55
5	95577	18.21	36.55
5	96134	18.31	36.55
5	96691	18.41	36.55
5	97248	18.51	36.55
5	97805	18.61	36.55
5	98362	18.71	36.55
5	98919	18.81	36.55
5	99476	18.91	36.55
5	100041	19.01	36.55
5	100598	19.11	36.55
5	101155	19.21	36.55
5	101712	19.31	36.55
5	102269	19.41	36.55
5	102826	19.51	36.55
5	103383	19.61	36.55
5	103940	19.71	36.55
5	104497	19.81	36.55
5	105054	19.91	36.55
5	105619	20.01	36.55
5	106176	20.11	36.55
5	106733	20.21	36.55
5	107290	20.31	36.55
5	107847	20.41	36.55
5	108404	20.51	36.55
5	108961	20.61	36.55
5	109518	20.71	36.55
5	110075	20.81	36.55
5	110632	20.91	36.55
5	111197	21.01	36.55
5	111754	21.11	36.55
5	112311	21.21	36.55
5	112868	21.31	36.55
5	113425	21.41	36.55
5	113982	21.51	36.55
5	114539	21.61	36.55
5	115096	21.71	36.55
5	115653	21.81	36.55
5	116210	21.91	36.55
5	116775	22.01	36.55
5	117332	22.11	36.55
5	117889	22.21	36.55
5	118446	22.31	36.55
5	119003	22.41	36.55
5	119560	22.51	36.55
5	120117	22.61	36.55
5	120674	22.71	36.55
5	121231	22.81	36.55
5	121788	22.91	36.55
5	122353	23.01	36.55
5	122910	23.11	36.55
5	123467	23.21	36.55
5	124024	23.31	36.55
5	124581	23.41	36.55
5	125138	23.51	36.55
5	125695	23.61	36.55
5	126252	23.71	36.55
5	126809	23.81	36.55
5	127366	23.91	36.55
5	127931	24.01	36.55
5	128488	24.11	36.55
5	129045	24.21	36.55
5	129602	24.31	36.55
5	130159	24.41	36.55
5	130716	24.51	36.55
5	131273	24.61	36.55
5	131830	24.71	36.55
5	132387	24.81	36.55
5	132944	24.91	36.55
5	133509	25.01	36.55
5	134066	25.11	36.55
5	134623	25.21	36.55
5	135180	25.31	36.55
5	135737	25.41	36.55
5	136294	25.51	36.55
5	136851	25.61	36.55
5	137408	25.71	36.55
5	137965	25.81	36.55
5	138522	25.91	36.55
5	139087	26.01	36.55
5	139644	26.11	36.55
5	140201	26.21	36.55
5	140758	26.31	36.55
5	141315	26.41	36.55
5	141872	26.51	36.55
5	142429	26.61	36.55
5	142986	26.71	36.55
5	143543	26.81	36.55
5	144100	26.91	36.55
5	144665	27.01	36.55
5	145222	27.11	36.55
5	145779	27.21	36.55
5	146336	27.31	36.55
5	146893	27.41	36.55
5	147450	27.51	36.55
5	148007	27.61	36.55
5	148564	27.71	36.55
5	149121	27.81	36.55
5	149678	27.91	36.55
5	150243	28.01	36.55
5	150800	28.11	36.55
5	151357	28.21	36.55
5	151914	28.31	36.55
5	152471	28.41	36.55
5	153028	28.51	36.55
5	153585	28.61	36.55
5	154142	28.71	36.55
5	154699	28.81	36.55
5	155256	28.91	36.55
5	155821	29.01	36.55
5	156378	29.11	36.55
5	156935	29.21	36.55
5	157492	29.31	36.55
5	158049	29.41	36.55
5	158606	29.51	36.55
5	159163	29.61	36.55
5	159720	29.71	36.55
5	160277	29.81	36.55
5	160834	29.91	36.55
5	161399	30.01	36.55
5	161956	30.11	36.55
5	162513	30.21	36.55
5	163070	30.31	36.55
5	163627	30.41	36.55
5	164184	30.51	36.55
5	164741	30.61	36.55
5	165298	30.71	36.55
5	165855	30.81	36.55
5	166412	30.91	36.55
5	166977	31.01	36.55
5	167534	31.11	36.55
5	168091	31.21	36.55
5	168648	31.31	36.55
5	169205	31.41	36.55
5	169762	31.51	36.55
5	170319	31.61	36.55
5	170876	31.71	36.55
5	171433	31.81	36.55
5	171990	31.91	36.55
5	172555	32.01	36.55
5	173112	32.11	36.55
5	173669	32.21	36.55
5	174226	32.31	36.55
5	174783	32.41	36.55
5	175340	32.51	36.55
5	175897	32.61	36.55
5	176454	32.71	36.55
5	177011	32.81	36.55
5	177568	32.91	36.55
5	178133	33.01	36.55
5	178690	33.11	36.55
5	179247	33.21	36.55
5	179804	33.31	36.55
5	180361	33.41	36.55
5	180918	33.51	36.55
5	181475	33.61	36.55
5	182032	33.71	36.55
5	182589	33.81	36.55
5	183146	33.91	36.55
5	183711	34.01	36.55
5	184268	34.11	36.55
5	184825	34.21	36.55
5	185382	34.31	36.55
5	185939	34.41	36.55
5	186496	34.51	36.55
5	187053	34.61	36.55
5	187610	34.71	36.55
5	188167	34.81	36.55
5	188724	34.91	36.55
5	189289	35.01	36.55
5	189846	35.11	36.55
5	190403	35.21	36.55
5	190960	35.31	36.55
5	191517	35.41	36.55
5	192074	35.51	36.55
5	192631	35.61	36.55
5	193188	35.71	36.55
5	193745	35.81	36.55
5	194302	35.91	36.55
5	194867	36.01	36.55
5	195424	36.11	36.55
5	195981	36.21	36.55
5	196538	36.31	36.55
5	197095	36.41	36.55
5	197652	36.51	36.55
5	198209	36.61	36.55
5	198766	36.71	36.55
5	199323	36.81	36.55
5	199880	36.91	36.55
5	200445	37.01	36.55
5	201002	37.11	36.55
5	201559	37.21	36.55
5	202116	37.31	36.55
5	202673	37.41	36.55
5	203230	37.51	36.55
5	203787	37.61	36.55
5	204344	37.71	36.55
5	204901	37.81	36.55
5	205458	37.91	36.55
5	206023	38.01	36.55
5	206580	38.11	36.55
5	207137	38.21	36.55
5	207694	38.31	36.55
5	208251	38.41	36.55
5	208808	38.51	36.55
5	209365	38.61	36.55
5	209922	38.71	36.55
5	210479	38.81	36.55
5	211036	38.91	36.55
5	211601	39.01	36.55
5	212158	39.11	36.55
5	212715	39.21	36.55
5	213272	39.31	36.55
5	213829	39.41	36.55
5	214386	39.51	36.55
5	214943	39.61	36.55
5	215500	39.71	36.55
5	216057	39.81	36.55
5	216614	39.91	36.55
5	217179	40.01	36.55
5	217736	40.11	36.55
5	218293	40.21	36.55
5	218850	40.31	36.55
5	219407	40.41	36.55
5	219964	40.51	36.55
4	232	1.11	101.22663612406
4	788	1.21	104.55996933287
4	1344	1.31	107.89330254577
4	1900	1.41	111.22663576416
4	2456	1.51	114.55996898913
4	3012	1.61	117.89330222144
4	3568	1.71	121.22663546158
4	4124	1.81	124.55996870981
4	4680	1.91	127.89330196621
4	5244	2.01	131.2266352307
4	5800	2.11	134.55996850304
4	6356	2.21	137.89330178294
4	6912	2.31	141.22663506997
4	7468	2.41	144.55996836371
4	8024	2.51	147.89330166364
4	8580	2.61	151.22663496927
4	9136	2.71	154.55996828005
4	9692	2.81	157.89330159547
4	10248	2.91	161.22663491502
4	10812	3.01	164.5599682382
4	11368	3.11	167.89330156455
4	11924	3.21	171.22663489361
4	12480	3.31	174.55996822498
4	13036	3.41	177.89330155828
4	13592	3.51	181.22663489316
4	14148	3.61	184.55996822932
4	14704	3.71	187.89330156646
4	15260	3.81	191.22663490435
4	15816	3.91	194.55996824277
4	16380	4.01	197.89330158153
4	16936	4.11	201.22663492047
4	17492	4.21	204.55996825947
4	18048	4.31	207.89330159841
4	18604	4.41	211.22663493719
4	19160	4.51	214.55996827576
4	19716	4.61	217.89330161405
4	20272	4.71	221.22663495202
4	20828	4.81	224.55996828966
4	21384	4.91	227.89330162693
4	21949	5.01	231.22663496385
4	22506	5.11	234.55996966568
4	23063	5.21	237.89353086887
4	23620	5.31	241.2280921651
4	24177	5.41	244.56487818204
4	24734	5.51	247.90543890341
4	25291	5.61	251.25150919168
4	25848	5.71	254.60477453142
4	26405	5.81	257.96663696309
4	26962	5.91	261.33824678002
4	27527	6.01	264.72054762338
4	28084	6.11	268.11431360759
4	28641	6.21	271.52017977612
4	29198	6.31	274.93866708577
4	29755	6.41	278.37020290259
4	30312	6.51	281.81513778391
4	30869	6.61	285.27372947965
4	31426	6.71	288.74593155687
4	31983	6.81	292.23121749902
4	32540	6.91	295.72859852978
4	33105	7.01	299.23665993632
4	33662	7.11	302.75360460418
4	34219	7.21	306.27730260738
4	34776	7.31	309.80534568659
4	35333	7.41	313.33510590486
4	35890	7.51	316.86387033494
4	36447	7.61	320.38914117047
4	37004	7.71	323.90885126617
4	37561	7.81	327.42130484288
4	38118	7.91	330.92511077108
4	38683	8.01	334.41912784003
4	39240	8.11	337.90241985944
4	39797	8.21	341.37421882717
4	40354	8.31	344.83389471401
4	40911	8.41	348.28093067655
4	41468	8.51	351.71490272317
4	42025	8.61	355.13546303308
4	42582	8.71	358.54232627207
4	43139	8.81	361.93525836673
4	43696	8.91	365.31406729531
4	44261	9.01	368.67859553311
4	44818	9.11	372.02871385501
4	45375	9.21	375.36431625139
4	45932	9.31	378.68531575745
4	46489	9.41	381.99164103177
4	47046	9.51	385.28323581232
4	47603	9.61	388.56029539949
4	48160	9.71	391.8236811146
4	48717	9.81	395.07488472005
4	49274	9.91	398.31592332888
4	49839	10.01	401.5492347806
4	50396	10.11	404.77757479205
4	50953	10.21	408.00391612248
4	51510	10.31	411.23118698581
4	52067	10.41	414.4619086912
4	52624	10.51	417.69815606449
4	53181	10.61	420.94163118556
4	53738	10.71	424.19373035274
4	54295	10.81	427.45559901698
4	54852	10.91	430.72817684702
4	55417	11.01	434.01223469853
4	55974	11.11	437.30840494163
4	56531	11.21	440.61720634008
4	57088	11.31	443.93906446085
4	57645	11.41	447.27432841708
4	58202	11.51	450.62328460315
4	58759	11.61	453.98616796217
4	59316	11.71	457.36317122936
4	59873	11.81	460.75445251471
4	60430	11.91	464.16012672408
4	60995	12.01	467.57998882769
4	61552	12.11	471.01319350958
4	62109	12.21	474.45831166841
4	62666	12.31	477.91341741355
4	63223	12.41	481.37617685626
4	63780	12.51	484.84393733293
4	64337	12.61	488.31381663537
4	64894	12.71	491.78292601445
4	65451	12.81	495.24871969574
4	66008	12.91	498.70909857447
4	66573	13.01	502.16234065363
4	67130	13.11	505.60703329589
4	67687	13.21	509.04201764664
4	68244	13.31	512.46634304143
4	68801	13.41	515.87922960433
4	69358	13.51	519.28003756544
4	69915	13.61	522.66824209059
4	70472	13.71	526.04341263299
4	71029	13.81	529.40519599429
4	71586	13.91	532.75330242884
4	72151	14.01	536.08749424427
4	72708	14.11	539.40757645006
4	73265	14.21	542.71338908608
4	73822	14.31	546.0048009293
4	74379	14.41	549.28170511216
4	74936	14.51	552.54416817253
4	75493	14.61	555.79280541643
4	76050	14.71	559.02886057847
4	76607	14.81	562.25411947601
4	77164	14.91	565.47081559324
4	77729	15.01	568.68153553225
4	78286	15.11	571.88912521143
4	78843	15.21	575.09652750452
4	79400	15.31	578.30645156475
4	79957	15.41	581.52113912786
4	80514	15.51	584.74242919797
4	81071	15.61	587.97183039897
4	81628	15.71	591.2105803279
4	82185	15.81	594.45969424541
4	82742	15.91	597.72000501882
4	83307	16.01	600.99219588944
4	83864	16.11	604.27682735311
4	84421	16.21	607.57435921164
4	84978	16.31	610.88516866266
4	85535	16.41	614.20956513961
4	86092	16.51	617.54780248569
4	86649	16.61	620.90008894072
4	87206	16.71	624.26659533389
4	87763	16.81	627.64746180466
4	88320	16.91	631.04280230169
4	88885	17.01	634.452520321
4	89442	17.11	637.87591749234
4	89999	17.21	641.31168015444
4	90556	17.31	644.75796901049
4	91113	17.41	648.21251154844
4	91670	17.51	651.6726946937
4	92227	17.61	655.13565697888
4	92784	17.71	658.59847275889
4	93341	17.81	662.05848976957
4	93898	17.91	665.51351603908
4	94463	18.01	668.96175338705
4	95020	18.11	672.40172667929
4	95577	18.21	675.83222579195
4	96134	18.31	679.25225800199
4	96691	18.41	682.66100893078
4	97248	18.51	686.05781050415
4	97805	18.61	689.44211466863
4	98362	18.71	692.81347182947
4	98919	18.81	696.17151316238
4	99476	18.91	699.51593610298
4	100041	19.01	702.84649244311
4	100598	19.11	706.16297856562
4	101155	19.21	709.46522743351
4	101712	19.31	712.75310201829
4	102269	19.41	716.02649082757
4	102826	19.51	719.28547902728
4	103383	19.61	722.53073415438
4	103940	19.71	725.76354394305
4	104497	19.81	728.98572785302
4	105054	19.91	732.19954391092
4	105619	20.01	735.407595356
4	106176	20.11	738.6127378665
4	106733	20.21	741.81790343441
4	107290	20.31	745.02576535584
4	107847	20.41	748.2385340018
4	108404	20.51	751.45802264639
4	108961	20.61	754.68571880594
4	109518	20.71	757.92284276192
4	110075	20.81	761.17039557019
4	110632	20.91	764.4291984452
4	111197	21.01	767.69992506884
4	111754	21.11	770.98312809489
4	112311	21.21	774.27926089195
4	112868	21.31	777.58869538019
4	113425	21.41	780.91173666366
4	113982	21.51	784.24863503398
4	114539	21.61	787.59959581743
4	115096	21.71	790.96478745309
4	115653	21.81	794.34434811967
4	116210	21.91	797.73839022317
4	116775	22.01	801.14682447139
4	117332	22.11	804.5689719046
4	117889	22.21	808.00353516258
4	118446	22.31	811.44868741826
4	119003	22.41	814.9021652627
4	119560	22.51	818.36136179932
4	120117	22.61	821.82341919363
4	120674	22.71	825.28540779832
4	121231	22.81	828.74466210833
4	121788	22.91	832.19897856886
4	122353	23.01	835.64654949746
4	122910	23.11	839.0858919649
4	123467	23.21	842.51578945272
4	124024	23.31	845.93524399207
4	124581	23.41	849.34343690088
4	125138	23.51	852.73969657473
4	125695	23.61	856.12347206407
4	126252	23.71	859.49431139836
4	126809	23.81	862.85184380436
4	127366	23.91	866.19576511885
4	127931	24.01	869.52582582206
4	128488	24.11	872.84182122086
4	129045	24.21	876.14358339562
4	129602	24.31	879.43097459371
4	130159	24.41	882.70388274759
4	130716	24.51	885.96239561783
4	131273	24.61	889.20718792505
4	131830	24.71	892.43955345715
4	132387	24.81	895.66131630702
4	132944	24.91	898.87473788611
4	133509	25.01	902.0824237336
4	134066	25.11	905.28723088362
4	134623	25.21	908.49208985342
4	135180	25.31	911.69966903907
4	135737	25.41	914.91217452465
4	136294	25.51	918.13141606753
4	136851	25.61	921.35887829904
4	137408	25.71	924.59577913402
4	137965	25.81	927.84311768679
4	138522	25.91	931.10171357912
4	139087	26.01	934.37223918631
4	139644	26.11	937.65524609031
4	140201	26.21	940.95118678044
4	140758	26.31	944.26043245552
4	141315	26.41	947.58328762789
4	141872	26.51	950.92000210372
4	142429	26.61	954.2707808111
4	142986	26.71	957.6357918624
4	143543	26.81	961.01517316836
4	144100	26.91	964.40903692212
4	144665	27.01	967.8172947947
4	145222	27.11	971.23927049233
4	145779	27.21	974.67366890142
4	146336	27.31	978.1186649144
4	146893	27.41	981.57199637855
4	147450	27.51	985.03105725096
4	148007	27.61	988.49299020047
4	148564	27.71	991.95486503267
4	149121	27.81	995.41401442435
4	149678	27.91	998.86823323003
4	150243	28.01	1002.3157124624
4	150800	28.11	1005.7549681217
4	151357	28.21	1009.1847828113
4	151914	28.31	1012.6041578421
4	152471	28.41	1016.0122739409
4	153028	28.51	1019.4084590185
4	153585	28.61	1022.7921617276
4	154142	28.71	1026.1629297716
4	154699	28.81	1029.5203921094
4	155256	28.91	1032.8642443583
4	155821	29.01	1036.1942368184
4	156378	29.11	1039.5101646488
4	156935	29.21	1042.8118598087
4	157492	29.31	1046.099184446
4	158049	29.41	1049.3720264142
4	158606	29.51	1052.6304738312
4	159163	29.61	1055.8752024072
4	159720	29.71	1059.1075067636
4	160277	29.81	1062.3292116316
4	160834	29.91	1065.5425788888
4	161399	30.01	1068.750214391
4	161956	30.11	1071.9549753593
4	162513	30.21	1075.1597921079
4	163070	30.31	1078.3673323582
4	163627	30.41	1081.5798016038
4	164184	30.51	1084.799009118
4	164741	30.61	1088.0264391348
4	165298	30.71	1091.2633092432
4	165855	30.81	1094.5106182901
4	166412	30.91	1097.769185678
4	166977	31.01	1101.0396836023
4	167534	31.11	1104.3226634974
4	168091	31.21	1107.6185777315
4	168648	31.31	1110.927797404
4	169205	31.41	1114.250626946
4	169762	31.51	1117.5873160966
4	170319	31.61	1120.9380697291
4	170876	31.71	1124.303055911
4	171433	31.81	1127.6824125161
4	171990	31.91	1131.0762517081
4	172555	32.01	1134.4844852908
4	173112	32.11	1137.9064373376
4	173669	32.21	1141.3408130442
4	174226	32.31	1144.7857875399
4	174783	32.41	1148.239098845
4	175340	32.51	1151.6981410341
4	175897	32.61	1155.1600568455
4	176454	32.71	1158.6219160093
4	177011	32.81	1162.0810509519
4	177568	32.91	1165.5352563088
4	178133	33.01	1168.982722913
4	178690	33.11	1172.4219666173
4	179247	33.21	1175.8517699042
4	179804	33.31	1179.2711339853
4	180361	33.41	1182.679239506
4	180918	33.51	1186.0754143104
4	181475	33.61	1189.4591069965
4	182032	33.71	1192.8298652225
4	182589	33.81	1196.1873179107
4	183146	33.91	1199.531160648
4	183711	34.01	1202.8611437099
4	184268	34.11	1206.177062235
4	184825	34.21	1209.4787481657
4	185382	34.31	1212.7660636364
4	185939	34.41	1216.0388964896
4	186496	34.51	1219.2973348927
4	187053	34.61	1222.5420546917
4	187610	34.71	1225.7743506232
4	188167	34.81	1228.9960475061
4	188724	34.91	1232.2094072821
4	189289	35.01	1235.4170358509
4	189846	35.11	1238.6217904592
4	190403	35.21	1241.8266013932
4	190960	35.31	1245.0341362814
4	191517	35.41	1248.2466005361
4	192074	35.51	1251.465803364
4	192631	35.61	1254.6932289443
4	193188	35.71	1257.930094821
4	193745	35.81	1261.1773998045
4	194302	35.91	1264.4359632668
4	194867	36.01	1267.7064573787
4	195424	36.11	1270.9894335542
4	195981	36.21	1274.2853441448
4	196538	36.31	1277.5945602364
4	197095	36.41	1280.9173862485
4	197652	36.51	1284.2540719114
4	198209	36.61	1287.6048220907
4	198766	36.71	1290.9698048477
4	199323	36.81	1294.349158051
4	199880	36.91	1297.7429938604
4	200445	37.01	1301.151224098
4	201002	37.11	1304.5731728876
4	201559	37.21	1308.0075454677
4	202116	37.31	1311.4525170001
4	202673	37.41	1314.905825529
4	203230	37.51	1318.3648651451
4	203787	37.61	1321.8267785962
4	204344	37.71	1325.2886356022
4	204901	37.81	1328.7477685549
4	205458	37.91	1332.2019720597
4	206023	38.01	1335.6494369248
4	206580	38.11	1339.0886789827
4	207137	38.21	1342.5184806992
4	207694	38.31	1345.9378432723
4	208251	38.41	1349.3459473362
4	208808	38.51	1352.7421207258
4	209365	38.61	1356.1258120315
4	209922	38.71	1359.4965689055
4	210479	38.81	1362.8540202647
4	211036	38.91	1366.1978616922
4	211601	39.01	1369.5278434597
4	212158	39.11	1372.8437607033
4	212715	39.21	1376.145445363
4	213272	39.31	1379.4327595713
4	213829	39.41	1382.7055911693
4	214386	39.51	1385.9640283309
4	214943	39.61	1389.2087469212
4	215500	39.71	1392.4410416924
4	216057	39.81	1395.6627374756
4	216614	39.91	1398.8760962214
4	217179	40.01	1402.0837238354
4	217736	40.11	1405.2884775678
4	218293	40.21	1408.493287701
4	218850	40.31	1411.7008218507
4	219407	40.41	1414.9132854181
4	219964	40.51	1418.1324876006
3	232	1.11	33.333332070582
3	788	1.21	33.333332100049
3	1344	1.31	33.333332146342
3	1900	1.41	33.333332205608
3	2456	1.51	33.333332274454
3	3012	1.61	33.333332349923
3	3568	1.71	33.333332429473
3	4124	1.81	33.333332510943
3	4680	1.91	33.333332592527
3	5244	2.01	33.333332672741
3	5800	2.11	33.333332750393
3	6356	2.21	33.33333282455
3	6912	2.31	33.33333289451
3	7468	2.41	33.333332959772
3	8024	2.51	33.33333302001
3	8580	2.61	33.333333075046
3	9136	2.71	33.333333124827
3	9692	2.81	33.333333169405
3	10248	2.91	33.333333208914
3	10812	3.01	33.333333243557
3	11368	3.11	33.333333273586
3	11924	3.21	33.333333299293
3	12480	3.31	33.333333320991
3	13036	3.41	33.333333339013
3	13592	3.51	33.333333353695
3	14148	3.61	33.333333365375
3	14704	3.71	33.333333374381
3	15260	3.81	33.333333381033
3	15816	3.91	33.333333385635
3	16380	4.01	33.333333388471
3	16936	4.11	33.33333338981
3	17492	4.21	33.333333389894
3	18048	4.31	33.33333338895
3	18604	4.41	33.333333387177
3	19160	4.51	33.333333384757
3	19716	4.61	33.333333381849
3	20272	4.71	33.333333378594
3	20828	4.81	33.333333375112
3	21384	4.91	33.333333371506
3	21949	5.01	33.333333367863
3	22506	5.11	33.333401628544
3	23063	5.21	33.337615197889
3	23620	5.31	33.351331457648
3	24177	5.41	33.378611875711
3	24734	5.51	33.422277525915
3	25291	5.61	33.483619363034
3	25848	5.71	33.560883289289
3	26405	5.81	33.651214374853
3	26962	5.91	33.75226508234
3	27527	6.01	33.862109613447
3	28084	6.11	33.97916814281
3	28641	6.21	34.102144663378
3	29198	6.31	34.229975997969
3	29755	6.41	34.36178997099
3	30312	6.51	34.49686951103
3	30869	6.61	34.63394454499
3	31426	6.71	34.768907460539
3	31983	6.81	34.896940693623
3	32540	6.91	35.013537294543
3	33105	7.01	35.114580456764
3	33662	7.11	35.196411611993
3	34219	7.21	35.255886909516
3	34776	7.31	35.290421999417
3	35333	7.41	35.298048086563
3	35890	7.51	35.278759124112
3	36447	7.61	35.23598770154
3	37004	7.71	35.17395248273
3	37561	7.81	35.096114241429
3	38118	7.91	35.005312017494
3	38683	8.01	34.903874812445
3	39240	8.11	34.79371321872
3	39797	8.21	34.676394587578
3	40354	8.31	34.553204692958
3	40911	8.41	34.425198317326
3	41468	8.51	34.293240749685
3	42025	8.61	34.158041828395
3	42582	8.71	34.020183868152
3	43139	8.81	33.880144569824
3	43696	8.91	33.738315814505
3	44261	9.01	33.595019081188
3	44818	9.11	33.450518094614
3	45375	9.21	33.30502920093
3	45932	9.31	33.158729879327
3	46489	9.41	33.011765724558
3	47046	9.51	32.864353863035
3	47603	9.61	32.721012496936
3	48160	9.71	32.588643994693
3	48717	9.81	32.473185082585
3	49274	9.91	32.37952165218
3	49839	10.01	32.31149760861
3	50396	10.11	32.271937243073
3	50953	10.21	32.262628456892
3	51510	10.31	32.281431757463
3	52067	10.41	32.323804768138
3	52624	10.51	32.385513150424
3	53181	10.61	32.463083271939
3	53738	10.71	32.553665544264
3	54295	10.81	32.654922312383
3	54852	10.91	32.764935884979
3	55417	11.01	32.88213308724
3	55974	11.11	33.005223367884
3	56531	11.21	33.13314802536
3	57088	11.31	33.265038555652
3	57645	11.41	33.400182482965
3	58202	11.51	33.537995328993
3	58759	11.61	33.677997617952
3	59316	11.71	33.819796012697
3	59873	11.81	33.96306783977
3	60430	11.91	34.107141747152
3	60995	12.01	34.246982852793
3	61552	12.11	34.376202942323
3	62109	12.21	34.489264817717
3	62666	12.31	34.581509590607
3	63223	12.41	34.649169726167
3	63780	12.51	34.689368787218
3	64337	12.61	34.7001510107
3	64894	12.71	34.682882928545
3	65451	12.81	34.641769331689
3	66008	12.91	34.581094107388
3	66573	13.01	34.504371535269
3	67130	13.11	34.414484548651
3	67687	13.21	34.313798156979
3	68244	13.31	34.204252491731
3	68801	13.41	34.087439136468
3	69358	13.51	33.964663744057
3	69915	13.61	33.836997404607
3	70472	13.71	33.705318785069
3	71029	13.81	33.570348698382
3	71586	13.91	33.432678462216
3	72151	14.01	33.292793163015
3	72708	14.11	33.151090740619
3	73265	14.21	33.0078976443
3	73822	14.31	32.863481676162
3	74379	14.41	32.718101580034
3	74936	14.51	32.574886427257
3	75493	14.61	32.440114751869
3	76050	14.71	32.319814522883
3	76607	14.81	32.219077485442
3	77164	14.91	32.142048757657
3	77729	15.01	32.091930244201
3	78286	15.11	32.070975264143
3	78843	15.21	32.079224413257
3	79400	15.31	32.112939343728
3	79957	15.41	32.167545084638
3	80514	15.51	32.239288566376
3	81071	15.61	32.325090964666
3	81628	15.71	32.422426571247
3	82185	15.81	32.529223425642
3	82742	15.91	32.643781798595
3	83307	16.01	32.764707320103
3	83864	16.11	32.890856121102
3	84421	16.21	33.021289830551
3	84978	16.31	33.155238657363
3	85535	16.41	33.292071104728
3	86092	16.51	33.43126912531
3	86649	16.61	33.572407739859
3	87206	16.71	33.715138317369
3	87763	16.81	33.859174858989
3	88320	16.91	34.00423217336
3	88885	17.01	34.146527003479
3	89442	17.11	34.279561763556
3	89999	17.21	34.397486339902
3	90556	17.31	34.49536634699
3	91113	17.41	34.569194390325
3	91670	17.51	34.615887710296
3	92227	17.61	34.633302198405
3	92784	17.71	34.621906345921
3	93341	17.81	34.585610022692
3	93898	17.91	34.528886640621
3	94463	18.01	34.455405955556
3	95020	18.11	34.368178445471
3	95577	18.21	34.269673750852
3	96134	18.31	34.161917837073
3	96691	18.41	34.046572701384
3	97248	18.51	33.925001760404
3	97805	18.61	33.798323490638
3	98362	18.71	33.667455432386
3	98919	18.81	33.533150288272
3	99476	18.91	33.396025536615
3	100041	19.01	33.256587724703
3	100598	19.11	33.115252397745
3	101155	19.21	32.972360447543
3	101712	19.31	32.828191524111
3	102269	19.41	32.683020974216
3	102826	19.51	32.540389451904
3	103383	19.61	32.406715289624
3	103940	19.71	32.287914451662
3	104497	19.81	32.188979592244
3	105054	19.91	32.113969109672
3	105619	20.01	32.066009892824
3	106176	20.11	32.047286503659
3	106733	20.21	32.057518927939
3	107290	20.31	32.092860834819
3	107847	20.41	32.148801263061
3	108404	20.51	32.221639653283
3	108961	20.61	32.308340257886
3	109518	20.71	32.406412706488
3	110075	20.81	32.513814027983
3	110632	20.91	32.628868274494
3	111197	21.01	32.750200585031
3	111754	21.11	32.87668309472
3	112311	21.21	33.007390561525
3	112868	21.31	33.141563964718
3	113425	21.41	33.278580642935
3	113982	21.51	33.417929796984
3	114539	21.61	33.559192393615
3	115096	21.71	33.702024679617
3	115653	21.81	33.846144657624
3	116210	21.91	33.99127355855
3	116775	22.01	34.133781378533
3	117332	22.11	34.267219468202
3	117889	22.21	34.385696284949
3	118446	22.31	34.484240786262
3	119003	22.41	34.558813492781
3	119560	22.51	34.606303886233
3	120117	22.61	34.624542412731
3	120674	22.71	34.61387898274
3	121231	22.81	34.578183501056
3	121788	22.91	34.521953018326
3	122353	23.01	34.448876682398
3	122910	23.11	34.361980879439
3	123467	23.21	34.263748300197
3	124024	23.31	34.156215615805
3	124581	23.41	34.041053605964
3	125138	23.51	33.919632891962
3	125695	23.61	33.793077860643
3	126252	23.71	33.66231090084
3	126809	23.81	33.528088692668
3	127366	23.91	33.391031977369
3	127931	24.01	33.251649978969
3	128488	24.11	33.110360438529
3	129045	24.21	32.967506049221
3	129602	24.31	32.823367938803
3	130159	24.41	32.67822360761
3	130716	24.51	32.535669905051
3	131273	24.61	32.402144231196
3	131830	24.71	32.283547191314
3	132387	24.81	32.184857847866
3	132944	24.91	32.110122700925
3	133509	25.01	32.062458343834
3	134066	25.11	32.044039899942
3	134623	25.21	32.054543396576
3	135180	25.31	32.090107677201
3	135737	25.41	32.146230529366
3	136294	25.51	32.219218570743
3	136851	25.61	32.306041941417
3	137408	25.71	32.404215100957
3	137965	25.81	32.511699040498
3	138522	25.91	32.626821062583
3	139087	26.01	32.748208972697
3	139644	26.11	32.874737093404
3	140201	26.21	33.00548197713
3	140758	26.31	33.139686075231
3	141315	26.41	33.276727933964
3	141872	26.51	33.416097744805
3	142429	26.61	33.557377287201
3	142986	26.71	33.700223474632
3	143543	26.81	33.844354856653
3	144100	26.91	33.989493462117
3	144665	27.01	34.132030137959
3	145222	27.11	34.265523309485
3	145779	27.21	34.384075734601
3	146336	27.31	34.482711327072
3	146893	27.41	34.557386192231
3	147450	27.51	34.604985991209
3	148007	27.61	34.623337667502
3	148564	27.71	34.612774819361
3	149121	27.81	34.577161849829
3	149678	27.91	34.520999055801
3	150243	28.01	34.447978248185
3	150800	28.11	34.361127997782
3	151357	28.21	34.262932787503
3	151914	28.31	34.155430758675
3	152471	28.41	34.040293897074
3	153028	28.51	33.918893813388
3	153585	28.61	33.792355706113
3	154142	28.71	33.661602629922
3	154699	28.81	33.527391811146
3	155256	28.91	33.39034443912
3	155821	29.01	33.250970105458
3	156378	29.11	33.109686852772
3	156935	29.21	32.966837621612
3	157492	29.31	32.822703742673
3	158049	29.41	32.677563012382
3	158606	29.51	32.53502001788
3	159163	29.61	32.401514784645
3	159720	29.71	32.282945802856
3	160277	29.81	32.184290263234
3	160834	29.91	32.109593027321
3	161399	30.01	32.061969270629
3	161956	30.11	32.043592816673
3	162513	30.21	32.054133639286
3	163070	30.31	32.089728540214
3	163627	30.41	32.145876511694
3	164184	30.51	32.218885159657
3	164741	30.61	32.305725434909
3	165298	30.71	32.403912462091
3	165855	30.81	32.511407777928
3	166412	30.91	32.626539132538
3	166977	31.01	32.747934698574
3	167534	31.11	32.874469099802
3	168091	31.21	33.005219135744
3	168648	31.31	33.139427460457
3	169205	31.41	33.276472786482
3	169762	31.51	33.415845441712
3	170319	31.61	33.557127317498
3	170876	31.71	33.69997541912
3	171433	31.81	33.844108371445
3	171990	31.91	33.989248313206
3	172555	32.01	34.131788962834
3	173112	32.11	34.265289719931
3	173669	32.21	34.383852557486
3	174226	32.31	34.482500694658
3	174783	32.41	34.557189628713
3	175340	32.51	34.604804494622
3	175897	32.61	34.623171753508
3	176454	32.71	34.612622757152
3	177011	32.81	34.577021150908
3	177568	32.91	34.520867678733
3	178133	33.01	34.447854518284
3	178690	33.11	34.361010541222
3	179247	33.21	34.262820477267
3	179804	33.31	34.155322670218
3	180361	33.41	34.040189271946
3	180918	33.51	33.918792029396
3	181475	33.61	33.792256252841
3	182032	33.71	33.661505088653
3	182589	33.81	33.527295838386
3	183146	33.91	33.390249753082
3	183711	34.01	33.250876474981
3	184268	34.11	33.109594088223
3	184825	34.21	32.966745567426
3	185382	34.31	32.822612271231
3	185939	34.41	32.677472036844
3	186496	34.51	32.534930517026
3	187053	34.61	32.40142809882
3	187610	34.71	32.28286298112
3	188167	34.81	32.184212096876
3	188724	34.91	32.109520081976
3	189289	35.01	32.061901916669
3	189846	35.11	32.043531245463
3	190403	35.21	32.054077208517
3	190960	35.31	32.089676326398
3	191517	35.41	32.145827757247
3	192074	35.51	32.218839243098
3	192631	35.61	32.305681846407
3	193188	35.71	32.403870783406
3	193745	35.81	32.511367665959
3	194302	35.91	32.626500305822
3	194867	36.01	32.747896926212
3	195424	36.11	32.874432192378
3	195981	36.21	33.005182937871
3	196538	36.31	33.139391844662
3	197095	36.41	33.276437648195
3	197652	36.51	33.415810695147
3	198209	36.61	33.557092892281
3	198766	36.71	33.699941257521
3	199323	36.81	33.844074426105
3	199880	36.91	33.989214551897
3	200445	37.01	34.131755748785
3	201002	37.11	34.265257550548
3	201559	37.21	34.383821822079
3	202116	37.31	34.482471686876
3	202673	37.41	34.557162558465
3	203230	37.51	34.604779499354
3	203787	37.61	34.623148904237
3	204344	37.71	34.612601815515
3	204901	37.81	34.577001774195
3	205458	37.91	34.520849585803
3	206023	38.01	34.447837478503
3	206580	38.11	34.36099436539
3	207137	38.21	34.262805010174
3	207694	38.31	34.155307784537
3	208251	38.41	34.040174863226
3	208808	38.51	33.91877801195
3	209365	38.61	33.792242556377
3	209922	38.71	33.661491655505
3	210479	38.81	33.527282621248
3	211036	38.91	33.390236713149
3	211601	39.01	33.250863580417
3	212158	39.11	33.109581312913
3	212715	39.21	32.966732889944
3	213272	39.31	32.822599674004
3	213829	39.41	32.677459507911
3	214386	39.51	32.534918191183
3	214943	39.61	32.401416160656
3	215500	39.71	32.282851575109
3	216057	39.81	32.184201331992
3	216614	39.91	32.109510036116
3	217179	40.01	32.061892640842
3	217736	40.11	32.043522766022
3	218293	40.21	32.054069437006
3	218850	40.31	32.089669135635
3	219407	40.41	32.1458210429
3	219964	40.51	32.218832919578
1	232	1.11	0
1	788	1.21	0
1	1344	1.31	0
1	1900	1.41	0
1	2456	1.51	0
1	3012	1.61	0
1	3568	1.71	0
1	4124	1.81	0
1	4680	1.91	0
1	5244	2.01	0
1	5800	2.11	0
1	6356	2.21	0
1	6912	2.31	0
1	7468	2.41	0
1	8024	2.51	0
1	8580	2.61	0
1	9136	2.71	0
1	9692	2.81	0
1	10248	2.91	0
1	10812	3.01	0
1	11368	3.11	0
1	11924	3.21	0
1	12480	3.31	0
1	13036	3.41	0
1	13592	3.51	0
1	14148	3.61	0
1	14704	3.71	0
1	15260	3.81	0
1	15816	3.91	0
1	16380	4.01	0
1	16936	4.11	0
1	17492	4.21	0
1	18048	4.31	0
1	18604	4.41	0
1	19160	4.51	0
1	19716	4.61	0
1	20272	4.71	0
1	20828	4.81	0
1	21384	4.91	0
1	21949	5.01	0
1	22506	5.11	0
1	23063	5.21	0
1	23620	5.31	0
1	24177	5.41	0
1	24734	5.51	0
1	25291	5.61	0
1	25848	5.71	0
1	26405	5.81	0
1	26962	5.91	0
1	27527	6.01	0
1	28084	6.11	0
1	28641	6.21	0
1	29198	6.31	0
1	29755	6.41	0
1	30312	6.51	0
1	30869	6.61	0
1	31426	6.71	0
1	31983	6.81	0
1	32540	6.91	0
1	33105	7.01	0
1	33662	7.11	0
1	34219	7.21	0
1	34776	7.31	0
1	35333	7.41	0
1	35890	7.51	0
1	36447	7.61	0
1	37004	7.71	0
1	37561	7.81	0
1	38118	7.91	0
1	38683	8.01	0
1	39240	8.11	0
1	39797	8.21	0
1	40354	8.31	0
1	40911	8.41	0
1	41468	8.51	0
1	42025	8.61	0
1	42582	8.71	0
1	43139	8.81	0
1	43696	8.91	0
1	44261	9.01	0
1	44818	9.11	0
1	45375	9.21	0
1	45932	9.31	0
1	46489	9.41	0
1	47046	9.51	0
1	47603	9.61	0
1	48160	9.71	0
1	48717	9.81	0
1	49274	9.91	0
1	49839	10.01	0
1	50396	10.11	0
1	50953	10.21	0
1	51510	10.31	0
1	52067	10.41	0
1	52624	10.51	0
1	53181	10.61	0
1	53738	10.71	0
1	54295	10.81	0
1	54852	10.91	0
1	55417	11.01	0
1	55974	11.11	0
1	56531	11.21	0
1	57088	11.31	0
1	57645	11.41	0
1	58202	11.51	0
1	58759	11.61	0
1	59316	11.71	0
1	59873	11.81	0
1	60430	11.91	0
1	60995	12.01	0
1	61552	12.11	0
1	62109	12.21	0
1	62666	12.31	0
1	63223	12.41	0
1	63780	12.51	0
1	64337	12.61	0
1	64894	12.71	0
1	65451	12.81	0
1	66008	12.91	0
1	66573	13.01	0
1	67130	13.11	0
1	67687	13.21	0
1	68244	13.31	0
1	68801	13.41	0
1	69358	13.51	0
1	69915	13.61	0
1	70472	13.71	0
1	71029	13.81	0
1	71586	13.91	0
1	72151	14.01	0
1	72708	14.11	0
1	73265	14.21	0
1	73822	14.31	0
1	74379	14.41	0
1	74936	14.51	0
1	75493	14.61	0
1	76050	14.71	0
1	76607	14.81	0
1	77164	14.91	0
1	77729	15.01	0
1	78286	15.11	0
1	78843	15.21	0
1	79400	15.31	0
1	79957	15.41	0
1	80514	15.51	0
1	81071	15.61	0
1	81628	15.71	0
1	82185	15.81	0
1	82742	15.91	0
1	83307	16.01	0
1	83864	16.11	0
1	84421	16.21	0
1	84978	16.31	0
1	85535	16.41	0
1	86092	16.51	0
1	86649	16.61	0
1	87206	16.71	0
1	87763	16.81	0
1	88320	16.91	0
1	88885	17.01	0
1	89442	17.11	0
1	89999	17.21	0
1	90556	17.31	0
1	91113	17.41	0
1	91670	17.51	0
1	92227	17.61	0
1	92784	17.71	0
1	93341	17.81	0
1	93898	17.91	0
1	94463	18.01	0
1	95020	18.11	0
1	95577	18.21	0
1	96134	18.31	0
1	96691	18.41	0
1	97248	18.51	0
1	97805	18.61	0
1	98362	18.71	0
1	98919	18.81	0
1	99476	18.91	0
1	100041	19.01	0
1	100598	19.11	0
1	101155	19.21	0
1	101712	19.31	0
1	102269	19.41	0
1	102826	19.51	0
1	103383	19.61	0
1	103940	19.71	0
1	104497	19.81	0
1	105054	19.91	0
1	105619	20.01	0
1	106176	20.11	0
1	106733	20.21	0
1	107290	20.31	0
1	107847	20.41	0
1	108404	20.51	0
1	108961	20.61	0
1	109518	20.71	0
1	110075	20.81	0
1	110632	20.91	0
1	111197	21.01	0
1	111754	21.11	0
1	112311	21.21	0
1	112868	21.31	0
1	113425	21.41	0
1	113982	21.51	0
1	114539	21.61	0
1	115096	21.71	0
1	115653	21.81	0
1	116210	21.91	0
1	116775	22.01	0
1	117332	22.11	0
1	117889	22.21	0
1	118446	22.31	0
1	119003	22.41	0
1	119560	22.51	0
1	120117	22.61	0
1	120674	22.71	0
1	121231	22.81	0
1	121788	22.91	0
1	122353	23.01	0
1	122910	23.11	0
1	123467	23.21	0
1	124024	23.31	0
1	124581	23.41	0
1	125138	23.51	0
1	125695	23.61	0
1	126252	23.71	0
1	126809	23.81	0
1	127366	23.91	0
1	127931	24.01	0
1	128488	24.11	0
1	129045	24.21	0
1	129602	24.31	0
1	130159	24.41	0
1	130716	24.51	0
1	131273	24.61	0
1	131830	24.71	0
1	132387	24.81	0
1	132944	24.91	0
1	133509	25.01	0
1	134066	25.11	0
1	134623	25.21	0
1	135180	25.31	0
1	135737	25.41	0
1	136294	25.51	0
1	136851	25.61	0
1	137408	25.71	0
1	137965	25.81	0
1	138522	25.91	0
1	139087	26.01	0
1	139644	26.11	0
1	140201	26.21	0
1	140758	26.31	0
1	141315	26.41	0
1	141872	26.51	0
1	142429	26.61	0
1	142986	26.71	0
1	143543	26.81	0
1	144100	26.91	0
1	144665	27.01	0
1	145222	27.11	0
1	145779	27.21	0
1	146336	27.31	0
1	146893	27.41	0
1	147450	27.51	0
1	148007	27.61	0
1	148564	27.71	0
1	149121	27.81	0
1	149678	27.91	0
1	150243	28.01	0
1	150800	28.11	0
1	151357	28.21	0
1	151914	28.31	0
1	152471	28.41	0
1	153028	28.51	0
1	153585	28.61	0
1	154142	28.71	0
1	154699	28.81	0
1	155256	28.91	0
1	155821	29.01	0
1	156378	29.11	0
1	156935	29.21	0
1	157492	29.31	0
1	158049	29.41	0
1	158606	29.51	0
1	159163	29.61	0
1	159720	29.71	0
1	160277	29.81	0
1	160834	29.91	0
1	161399	30.01	0
1	161956	30.11	0
1	162513	30.21	0
1	163070	30.31	0
1	163627	30.41	0
1	164184	30.51	0
1	164741	30.61	0
1	165298	30.71	0
1	165855	30.81	0
1	166412	30.91	0
1	166977	31.01	0
1	167534	31.11	0
1	168091	31.21	0
1	168648	31.31	0
1	169205	31.41	0
1	169762	31.51	0
1	170319	31.61	0
1	170876	31.71	0
1	171433	31.81	0
1	171990	31.91	0
1	172555	32.01	0
1	173112	32.11	0
1	173669	32.21	0
1	174226	32.31	0
1	174783	32.41	0
1	175340	32.51	0
1	175897	32.61	0
1	176454	32.71	0
1	177011	32.81	0
1	177568	32.91	0
1	178133	33.01	0
1	178690	33.11	0
1	179247	33.21	0
1	179804	33.31	0
1	180361	33.41	0
1	180918	33.51	0
1	181475	33.61	0
1	182032	33.71	0
1	182589	33.81	0
1	183146	33.91	0
1	183711	34.01	0
1	184268	34.11	0
1	184825	34.21	0
1	185382	34.31	0
1	185939	34.41	0
1	186496	34.51	0
1	187053	34.61	0
1	187610	34.71	0
1	188167	34.81	0
1	188724	34.91	0
1	189289	35.01	0
1	189846	35.11	0
1	190403	35.21	0
1	190960	35.31	0
1	191517	35.41	0
1	192074	35.51	0
1	192631	35.61	0
1	193188	35.71	0
1	193745	35.81	0
1	194302	35.91	0
1	194867	36.01	0
1	195424	36.11	0
1	195981	36.21	0
1	196538	36.31	0
1	197095	36.41	0
1	197652	36.51	0
1	198209	36.61	0
1	198766	36.71	0
1	199323	36.81	0
1	199880	36.91	0
1	200445	37.01	0
1	201002	37.11	0
1	201559	37.21	0
1	202116	37.31	0
1	202673	37.41	0
1	203230	37.51	0
1	203787	37.61	0
1	204344	37.71	0
1	204901	37.81	0
1	205458	37.91	0
1	206023	38.01	0
1	206580	38.11	0
1	207137	38.21	0
1	207694	38.31	0
1	208251	38.41	0
1	208808	38.51	0
1	209365	38.61	0
1	209922	38.71	0
1	210479	38.81	0
1	211036	38.91	0
1	211601	39.01	0
1	212158	39.11	0
1	212715	39.21	0
1	213272	39.31	0
1	213829	39.41	0
1	214386	39.51	0
1	214943	39.61	0
1	215500	39.71	0
1	216057	39.81	0
1	216614	39.91	0
1	217179	40.01	0
1	217736	40.11	0
1	218293	40.21	0
1	218850	40.31	0
1	219407	40.41	0
1	219964	40.51	0
0	232	1.11	-1
0	788	1.21	-1
0	1344	1.31	-1
0	1900	1.41	-1
0	2456	1.51	-1
0	3012	1.61	-1
0	3568	1.71	-1
0	4124	1.81	-1
0	4680	1.91	-1
0	5244	2.01	-1
0	5800	2.11	-1
0	6356	2.21	-1
0	6912	2.31	-1
0	7468	2.41	-1
0	8024	2.51	-1
0	8580	2.61	-1
0	9136	2.71	-1
0	9692	2.81	-1
0	10248	2.91	-1
0	10812	3.01	-1
0	11368	3.11	-1
0	11924	3.21	-1
0	12480	3.31	-1
0	13036	3.41	-1
0	13592	3.51	-1
0	14148	3.61	-1
0	14704	3.71	-1
0	15260	3.81	-1
0	15816	3.91	-1
0	16380	4.01	-1
0	16936	4.11	-1
0	17492	4.21	-1
0	18048	4.31	-1
0	18604	4.41	-1
0	19160	4.51	-1
0	19716	4.61	-1
0	20272	4.71	-1
0	20828	4.81	-1
0	21384	4.91	-1
0	21949	5.01	-1
0	22506	5.11	-1
0	23063	5.21	-1
0	23620	5.31	-1
0	24177	5.41	-1
0	24734	5.51	-1
0	25291	5.61	-1
0	25848	5.71	-1
0	26405	5.81	-1
0	26962	5.91	-1
0	27527	6.01	-1
0	28084	6.11	-1
0	28641	6.21	-1
0	29198	6.31	-1
0	29755	6.41	-1
0	30312	6.51	-1
0	30869	6.61	-1
0	31426	6.71	-1
0	31983	6.81	-1
0	32540	6.91	-1
0	33105	7.01	-1
0	33662	7.11	-1
0	34219	7.21	-1
0	34776	7.31	-1
0	35333	7.41	-1
0	35890	7.51	-1
0	36447	7.61	-1
0	37004	7.71	-1
0	37561	7.81	-1
0	38118	7.91	-1
0	38683	8.01	-1
0	39240	8.11	-1
0	39797	8.21	-1
0	40354	8.31	-1
0	40911	8.41	-1
0	41468	8.51	-1
0	42025	8.61	-1
0	42582	8.71	-1
0	43139	8.81	-1
0	43696	8.91	-1
0	44261	9.01	-1
0	44818	9.11	-1
0	45375	9.21	-1
0	45932	9.31	-1
0	46489	9.41	-1
0	47046	9.51	-1
0	47603	9.61	-1
0	48160	9.71	-1
0	48717	9.81	-1
0	49274	9.91	-1
0	49839	10.01	-1
0	50396	10.11	-1
0	50953	10.21	-1
0	51510	10.31	-1
0	52067	10.41	-1
0	52624	10.51	-1
0	53181	10.61	-1
0	53738	10.71	-1
0	54295	10.81	-1
0	54852	10.91	-1
0	55417	11.01	-1
0	55974	11.11	-1
0	56531	11.21	-1
0	57088	11.31	-1
0	57645	11.41	-1
0	58202	11.51	-1
0	58759	11.61	-1
0	59316	11.71	-1
0	59873	11.81	-1
0	60430	11.91	-1
0	60995	12.01	-1
0	61552	12.11	-1
0	62109	12.21	-1
0	62666	12.31	-1
0	63223	12.41	-1
0	63780	12.51	-1
0	64337	12.61	-1
0	64894	12.71	-1
0	65451	12.81	-1
0	66008	12.91	-1
0	66573	13.01	-1
0	67130	13.11	-1
0	67687	13.21	-1
0	68244	13.31	-1
0	68801	13.41	-1
0	69358	13.51	-1
0	69915	13.61	-1
0	70472	13.71	-1
0	71029	13.81	-1
0	71586	13.91	-1
0	72151	14.01	-1
0	72708	14.11	-1
0	73265	14.21	-1
0	73822	14.31	-1
0	74379	14.41	-1
0	74936	14.51	-1
0	75493	14.61	-1
0	76050	14.71	-1
0	76607	14.81	-1
0	77164	14.91	-1
0	77729	15.01	-1
0	78286	15.11	-1
0	78843	15.21	-1
0	79400	15.31	-1
0	79957	15.41	-1
0	80514	15.51	-1
0	81071	15.61	-1
0	81628	15.71	-1
0	82185	15.81	-1
0	82742	15.91	-1
0	83307	16.01	-1
0	83864	16.11	-1
0	84421	16.21	-1
0	84978	16.31	-1
0	85535	16.41	-1
0	86092	16.51	-1
0	86649	16.61	-1
0	87206	16.71	-1
0	87763	16.81	-1
0	88320	16.91	-1
0	88885	17.01	-1
0	89442	17.11	-1
0	89999	17.21	-1
0	90556	17.31	-1
0	91113	17.41	-1
0	91670	17.51	-1
0	92227	17.61	-1
0	92784	17.71	-1
0	93341	17.81	-1
0	93898	17.91	-1
0	94463	18.01	-1
0	95020	18.11	-1
0	95577	18.21	-1
0	96134	18.31	-1
0	96691	18.41	-1
0	97248	18.51	-1
0	97805	18.61	-1
0	98362	18.71	-1
0	98919	18.81	-1
0	99476	18.91	-1
0	100041	19.01	-1
0	100598	19.11	-1
0	101155	19.21	-1
0	101712	19.31	-1
0	102269	19.41	-1
0	102826	19.51	-1
0	103383	19.61	-1
0	103940	19.71	-1
0	104497	19.81	-1
0	105054	19.91	-1
0	105619	20.01	-1
0	106176	20.11	-1
0	106733	20.21	-1
0	107290	20.31	-1
0	107847	20.41	-1
0	108404	20.51	-1
0	108961	20.61	-1
0	109518	20.71	-1
0	110075	20.81	-1
0	110632	20.91	-1
0	111197	21.01	-1
0	111754	21.11	-1
0	112311	21.21	-1
0	112868	21.31	-1
0	113425	21.41	-1
0	113982	21.51	-1
0	114539	21.61	-1
0	115096	21.71	-1
0	115653	21.81	-1
0	116210	21.91	-1
0	116775	22.01	-1
0	117332	22.11	-1
0	117889	22.21	-1
0	118446	22.31	-1
0	119003	22.41	-1
0	119560	22.51	-1
0	120117	22.61	-1
0	120674	22.71	-1
0	121231	22.81	-1
0	121788	22.91	-1
0	122353	23.01	-1
0	122910	23.11	-1
0	123467	23.21	-1
0	124024	23.31	-1
0	124581	23.41	-1
0	125138	23.51	-1
0	125695	23.61	-1
0	126252	23.71	-1
0	126809	23.81	-1
0	127366	23.91	-1
0	127931	24.01	-1
0	128488	24.11	-1
0	129045	24.21	-1
0	129602	24.31	-1
0	130159	24.41	-1
0	130716	24.51	-1
0	131273	24.61	-1
0	131830	24.71	-1
0	132387	24.81	-1
0	132944	24.91	-1
0	133509	25.01	-1
0	134066	25.11	-1
0	134623	25.21	-1
0	135180	25.31	-1
0	135737	25.41	-1
0	136294	25.51	-1
0	136851	25.61	-1
0	137408	25.71	-1
0	137965	25.81	-1
0	138522	25.91	-1
0	139087	26.01	-1
0	139644	26.11	-1
0	140201	26.21	-1
0	140758	26.31	-1
0	141315	26.41	-1
0	141872	26.51	-1
0	142429	26.61	-1
0	142986	26.71	-1
0	143543	26.81	-1
0	144100	26.91	-1
0	144665	27.01	-1
0	145222	27.11	-1
0	145779	27.21	-1
0	146336	27.31	-1
0	146893	27.41	-1
0	147450	27.51	-1
0	148007	27.61	-1
0	148564	27.71	-1
0	149121	27.81	-1
0	149678	27.91	-1
0	150243	28.01	-1
0	150800	28.11	-1
0	151357	28.21	-1
0	151914	28.31	-1
0	152471	28.41	-1
0	153028	28.51	-1
0	153585	28.61	-1
0	154142	28.71	-1
0	154699	28.81	-1
0	155256	28.91	-1
0	155821	29.01	-1
0	156378	29.11	-1
0	156935	29.21	-1
0	157492	29.31	-1
0	158049	29.41	-1
0	158606	29.51	-1
0	159163	29.61	-1
0	159720	29.71	-1
0	160277	29.81	-1
0	160834	29.91	-1
0	161399	30.01	-1
0	161956	30.11	-1
0	162513	30.21	-1
0	163070	30.31	-1
0	163627	30.41	-1
0	164184	30.51	-1
0	164741	30.61	-1
0	165298	30.71	-1
0	165855	30.81	-1
0	166412	30.91	-1
0	166977	31.01	-1
0	167534	31.11	-1
0	168091	31.21	-1
0	168648	31.31	-1
0	169205	31.41	-1
0	169762	31.51	-1
0	170319	31.61	-1
0	170876	31.71	-1
0	171433	31.81	-1
0	171990	31.91	-1
0	172555	32.01	-1
0	173112	32.11	-1
0	173669	32.21	-1
0	174226	32.31	-1
0	174783	32.41	-1
0	175340	32.51	-1
0	175897	32.61	-1
0	176454	32.71	-1
0	177011	32.81	-1
0	177568	32.91	-1
0	178133	33.01	-1
0	178690	33.11	-1
0	179247	33.21	-1
0	179804	33.31	-1
0	180361	33.41	-1
0	180918	33.51	-1
0	181475	33.61	-1
0	182032	33.71	-1
0	182589	33.81	-1
0	183146	33.91	-1
0	183711	34.01	-1
0	184268	34.11	-1
0	184825	34.21	-1
0	185382	34.31	-1
0	185939	34.41	-1
0	186496	34.51	-1
0	187053	34.61	-1
0	187610	34.71	-1
0	188167	34.81	-1
0	188724	34.91	-1
0	189289	35.01	-1
0	189846	35.11	-1
0	190403	35.21	-1
0	190960	35.31	-1
0	191517	35.41	-1
0	192074	35.51	-1
0	192631	35.61	-1
0	193188	35.71	-1
0	193745	35.81	-1
0	194302	35.91	-1
0	194867	36.01	-1
0	195424	36.11	-1
0	195981	36.21	-1
0	196538	36.31	-1
0	197095	36.41	-1
0	197652	36.51	-1
0	198209	36.61	-1
0	198766	36.71	-1
0	199323	36.81	-1
0	199880	36.91	-1
0	200445	37.01	-1
0	201002	37.11	-1
0	201559	37.21	-1
0	202116	37.31	-1
0	202673	37.41	-1
0	203230	37.51	-1
0	203787	37.61	-1
0	204344	37.71	-1
0	204901	37.81	-1
0	205458	37.91	-1
0	206023	38.01	-1
0	206580	38.11	-1
0	207137	38.21	-1
0	207694	38.31	-1
0	208251	38.41	-1
0	208808	38.51	-1
0	209365	38.61	-1
0	209922	38.71	-1
0	210479	38.81	-1
0	211036	38.91	-1
0	211601	39.01	-1
0	212158	39.11	-1
0	212715	39.21	-1
0	213272	39.31	-1
0	213829	39.41	-1
0	214386	39.51	-1
0	214943	39.61	-1
0	215500	39.71	-1
0	216057	39.81	-1
0	216614	39.91	-1
0	217179	40.01	-1
0	217736	40.11	-1
0	218293	40.21	-1
0	218850	40.31	-1
0	219407	40.41	-1
0	219964	40.51	-1
2	232	1.11	0
2	788	1.21	0
2	1344	1.31	0
2	1900	1.41	0
2	2456	1.51	0
2	3012	1.61	0
2	3568	1.71	0
2	4124	1.81	0
2	4680	1.91	0
2	5244	2.01	0
2	5800	2.11	0
2	6356	2.21	0
2	6912	2.31	0
2	7468	2.41	0
2	8024	2.51	0
2	8580	2.61	0
2	9136	2.71	0
2	9692	2.81	0
2	10248	2.91	0
2	10812	3.01	0
2	11368	3.11	0
2	11924	3.21	0
2	12480	3.31	0
2	13036	3.41	0
2	13592	3.51	0
2	14148	3.61	0
2	14704	3.71	0
2	15260	3.81	0
2	15816	3.91	0
2	16380	4.01	0
2	16936	4.11	0
2	17492	4.21	0
2	18048	4.31	0
2	18604	4.41	0
2	19160	4.51	0
2	19716	4.61	0
2	20272	4.71	0
2	20828	4.81	0
2	21384	4.91	0
2	21949	5.01	0
2	22506	5.11	0
2	23063	5.21	0
2	23620	5.31	0
2	24177	5.41	0
2	24734	5.51	0
2	25291	5.61	0
2	25848	5.71	0
2	26405	5.81	0
2	26962	5.91	0
2	27527	6.01	0
2	28084	6.11	0
2	28641	6.21	0
2	29198	6.31	0
2	29755	6.41	0
2	30312	6.51	0
2	30869	6.61	0
2	31426	6.71	0
2	31983	6.81	0
2	32540	6.91	0
2	33105	7.01	0
2	33662	7.11	0
2	34219	7.21	0
2	34776	7.31	0
2	35333	7.41	0
2	35890	7.51	0
2	36447	7.61	0
2	37004	7.71	0
2	37561	7.81	0
2	38118	7.91	0
2	38683	8.01	0
2	39240	8.11	0
2	39797	8.21	0
2	40354	8.31	0
2	40911	8.41	0
2	41468	8.51	0
2	42025	8.61	0
2	42582	8.71	0
2	43139	8.81	0
2	43696	8.91	0
2	44261	9.01	0
2	44818	9.11	0
2	45375	9.21	0
2	45932	9.31	0
2	46489	9.41	0
2	47046	9.51	0
2	47603	9.61	0
2	48160	9.71	0
2	48717	9.81	0
2	49274	9.91	0
2	49839	10.01	0
2	50396	10.11	0
2	50953	10.21	0
2	51510	10.31	0
2	52067	10.41	0
2	52624	10.51	0
2	53181	10.61	0
2	53738	10.71	0
2	54295	10.81	0
2	54852	10.91	0
2	55417	11.01	0
2	55974	11.11	0
2	56531	11.21	0
2	57088	11.31	0
2	57645	11.41	0
2	58202	11.51	0
2	58759	11.61	0
2	59316	11.71	0
2	59873	11.81	0
2	60430	11.91	0
2	60995	12.01	0
2	61552	12.11	0
2	62109	12.21	0
2	62666	12.31	0
2	63223	12.41	0
2	63780	12.51	0
2	64337	12.61	0
2	64894	12.71	0
2	65451	12.81	0
2	66008	12.91	0
2	66573	13.01	0
2	67130	13.11	0
2	67687	13.21	0
2	68244	13.31	0
2	68801	13.41	0
2	69358	13.51	0
[...]
35	162202	30.162219908626	0.099998659135
35	162759	30.262218567724	0.099998659098
35	163316	30.36221722682	0.099998659096
35	163873	30.462215885949	0.099998659129
35	164430	30.562214545153	0.099998659204
35	164987	30.662213204466	0.099998659313
35	165544	30.762211863932	0.099998659466
35	166101	30.862210523589	0.099998659657
35	166658	30.962222183474	0.100011659885
35	167223	31.06222084363	0.099998660156
35	167780	31.162219504098	0.099998660468
35	168337	31.262218164918	0.09999866082
35	168894	31.36221682613	0.099998661212
35	169451	31.462215487776	0.099998661646
35	170008	31.562214149898	0.099998662122
35	170565	31.662212812538	0.09999866264
35	171122	31.762211475736	0.099998663198
35	171679	31.862210139536	0.0999986638
35	172236	31.962221803978	0.100011664442
35	172801	32.062220469105	0.099998665127
35	173358	32.162219134949	0.099998665844
35	173915	32.262217801532	0.099998666583
35	174472	32.362216468862	0.09999866733
35	175029	32.462215136937	0.099998668075
35	175586	32.562213805733	0.099998668796
35	176143	32.662212475204	0.099998669471
35	176700	32.762211145292	0.099998670088
35	177257	32.862209815916	0.099998670624
35	177814	32.962221486987	0.100011671071
35	178379	33.062220158401	0.099998671414
35	178936	33.16221883005	0.099998671649
35	179493	33.262217501818	0.099998671768
35	180050	33.362216173581	0.099998671763
35	180607	33.462214845213	0.099998671632
35	181164	33.562213516578	0.099998671365
35	181721	33.662212187549	0.099998670971
35	182278	33.762210857988	0.099998670439
35	182835	33.86220952776	0.099998669772
35	183392	33.962221196723	0.100011668963
35	183957	34.062219864737	0.099998668014
35	184514	34.162218531666	0.099998666929
35	185071	34.262217197366	0.0999986657
35	185628	34.362215861697	0.099998664331
35	186185	34.462214524518	0.099998662821
35	186742	34.562213185691	0.099998661173
35	187299	34.662211845084	0.099998659393
35	187856	34.762210502573	0.099998657489
35	188413	34.862222158052	0.100011655479
35	188970	34.96222081143	0.099998653378
35	189535	35.062219462633	0.099998651203
35	190092	35.162218111607	0.099998648974
35	190649	35.26221675832	0.099998646713
35	191206	35.362215402755	0.099998644435
35	191763	35.462214044905	0.09999864215
35	192320	35.562212684782	0.099998639877
35	192877	35.662211322403	0.099998637621
35	193434	35.762209957793	0.09999863539
35	193991	35.862221590984	0.100011633191
35	194548	35.962220222012	0.099998631028
35	195113	36.062218850921	0.099998628909
35	195670	36.162217477757	0.099998626836
35	196227	36.262216102568	0.099998624811
35	196784	36.362214725404	0.099998622836
35	197341	36.462213346322	0.099998620918
35	197898	36.562211965378	0.099998619056
35	198455	36.662210582627	0.099998617249
35	199012	36.762222198131	0.100011615504
35	199569	36.862220811951	0.09999861382
35	200126	36.962219424149	0.099998612198
35	200691	37.062218034789	0.09999861064
35	201248	37.162216643925	0.099998609136
35	201805	37.262215251602	0.099998607677
35	202362	37.362213857858	0.099998606256
35	202919	37.46221246271	0.099998604852
35	203476	37.56221106616	0.09999860345
35	204033	37.662209668194	0.099998602034
35	204590	37.762221268775	0.100011600581
35	205147	37.862219867856	0.099998599081
35	205704	37.962218465373	0.099998597517
35	206269	38.062217061252	0.099998595879
35	206826	38.162215655415	0.099998594163
35	207383	38.262214247775	0.09999859236
35	207940	38.362212838239	0.099998590464
35	208497	38.46221142671	0.099998588471
35	209054	38.562210013091	0.099998586381
35	209611	38.662221597279	0.100011584188
35	210168	38.762220179172	0.099998581893
35	210725	38.862218758663	0.099998579491
35	211282	38.962217335647	0.099998576984
35	211847	39.062215910015	0.099998574368
35	212404	39.162214481665	0.09999857165
35	212961	39.262213050486	0.099998568821
35	213518	39.362211616369	0.099998565883
35	214075	39.462210179208	0.099998562839
35	214632	39.562221738898	0.10001155969
35	215189	39.662220295338	0.09999855644
35	215746	39.762218848443	0.099998553105
35	216303	39.862217398138	0.099998549695
35	216860	39.962215944365	0.099998546227
35	217425	40.062214487084	0.099998542719
35	217982	40.162213026274	0.09999853919
35	218539	40.262211561935	0.099998535661
35	219096	40.362210094087	0.099998532152
35	219653	40.462221622759	0.100011528672
36	1034	1.262216930646	0.099998660458
36	1590	1.362215591104	0.099998660458
36	2146	1.462214251562	0.099998660458
36	2702	1.56221291202	0.099998660458
36	3258	1.662211572478	0.099998660458
36	3814	1.762210232936	0.099998660458
36	4370	1.862221893394	0.100011660458
36	4926	1.962220553852	0.099998660458
36	5490	2.06221921431	0.099998660458
36	6046	2.162217874768	0.099998660458
36	6602	2.262216535226	0.099998660458
36	7158	2.362215195684	0.099998660458
36	7714	2.462213856142	0.099998660458
36	8270	2.5622125166	0.099998660458
36	8826	2.662211177058	0.099998660458
36	9382	2.762209837516	0.099998660458
36	9938	2.862221497974	0.100011660458
36	10494	2.962220158432	0.099998660458
36	11058	3.06221881889	0.099998660458
36	11614	3.162217479348	0.099998660458
36	12170	3.262216139806	0.099998660458
36	12726	3.362214800264	0.099998660458
36	13282	3.462213460722	0.099998660458
36	13838	3.56221212118	0.099998660458
36	14394	3.662210781638	0.099998660458
36	14950	3.762209442096	0.099998660458
36	15506	3.862221102554	0.100011660458
36	16062	3.962219763012	0.099998660458
36	16626	4.06221842347	0.099998660458
36	17182	4.162217083928	0.099998660458
36	17738	4.262215744386	0.099998660458
36	18294	4.362214404844	0.099998660458
36	18850	4.462213065302	0.099998660458
36	19406	4.56221172576	0.099998660458
36	19962	4.662210386218	0.099998660458
36	20518	4.762222046676	0.100011660458
36	21074	4.862220707134	0.099998660458
36	21630	4.962219367592	0.099998660458
36	22195	5.06221802805	0.099998660458
36	22752	5.162216688508	0.099998660458
36	23309	5.26221534897	0.099998660462
36	23866	5.36221400944	0.09999866047
36	24423	5.462212669931	0.099998660491
36	24980	5.562211330461	0.09999866053
36	25537	5.662209991046	0.099998660585
36	26094	5.762221651708	0.100011660662
36	26651	5.862220312467	0.099998660759
36	27208	5.962218973339	0.099998660872
36	27773	6.062217634338	0.099998660999
36	28330	6.162216295472	0.099998661134
36	28887	6.262214956757	0.099998661285
36	29444	6.362213618198	0.099998661441
36	30001	6.462212279802	0.099998661604
36	30558	6.562210941578	0.099998661776
36	31115	6.662209603533	0.099998661955
36	31672	6.762221265667	0.100011662134
36	32229	6.862219927978	0.099998662311
36	32786	6.962218590462	0.099998662484
36	33351	7.062217253106	0.099998662644
36	33908	7.162215915895	0.099998662789
36	34465	7.262214578806	0.099998662911
36	35022	7.362213241818	0.099998663012
36	35579	7.462211904902	0.099998663084
36	36136	7.562210568028	0.099998663126
36	36693	7.662222231168	0.10001166314
36	37250	7.762220894294	0.099998663126
36	37807	7.862219557386	0.099998663092
36	38364	7.962218220422	0.099998663036
36	38929	8.062216883388	0.099998662966
36	39486	8.162215546269	0.099998662881
36	40043	8.262214209054	0.099998662785
36	40600	8.362212871733	0.099998662679
36	41157	8.462211534297	0.099998662564
36	41714	8.562210196735	0.099998662438
36	42271	8.662221859042	0.100011662307
36	42828	8.762220521209	0.099998662167
36	43385	8.862219183233	0.099998662024
36	43942	8.962217845106	0.099998661873
36	44507	9.062216506821	0.099998661715
36	45064	9.162215168374	0.099998661553
36	45621	9.262213829759	0.099998661385
36	46178	9.362212490971	0.099998661212
36	46735	9.462211152007	0.099998661036
36	47292	9.562209812863	0.099998660856
36	47849	9.662221473536	0.100011660673
36	48406	9.762220134031	0.099998660495
36	48963	9.862218794354	0.099998660323
36	49520	9.962217454528	0.099998660174
36	50085	10.062216114571	0.099998660043
36	50642	10.162214774515	0.099998659944
36	51199	10.262213434387	0.099998659872
36	51756	10.36221209422	0.099998659833
36	52313	10.462210754045	0.099998659825
36	52870	10.562222413887	0.100011659842
36	53427	10.66222107377	0.099998659883
36	53984	10.762219733709	0.099998659939
36	54541	10.862218393723	0.099998660014
36	55098	10.962217053823	0.0999986601
36	55663	11.062215714023	0.0999986602
36	56220	11.162214374332	0.099998660309
36	56777	11.262213034758	0.099998660426
36	57334	11.362211695311	0.099998660553
36	57891	11.462210355998	0.099998660687
36	58448	11.562222016825	0.100011660827
36	59005	11.662220677797	0.099998660972
36	59562	11.762219338921	0.099998661124
36	60119	11.862218000203	0.099998661282
36	60676	11.962216661647	0.099998661444
36	61241	12.062215323256	0.099998661609
36	61798	12.162213985025	0.099998661769
36	62355	12.262212646945	0.09999866192
36	62912	12.362211309002	0.099998662057
36	63469	12.462209971173	0.099998662171
36	64026	12.562221633432	0.100011662259
36	64583	12.662220295748	0.099998662316
36	65140	12.76221895809	0.099998662342
36	65697	12.86221762043	0.09999866234
36	66254	12.962216282743	0.099998662313
36	66819	13.062214945004	0.099998662261
36	67376	13.162213607197	0.099998662193
36	67933	13.262212269305	0.099998662108
36	68490	13.362210931315	0.09999866201
36	69047	13.462209593217	0.099998661902
36	69604	13.562221254998	0.100011661781
36	70161	13.662219916652	0.099998661654
36	70718	13.762218578169	0.099998661517
36	71275	13.862217239544	0.099998661375
36	71832	13.962215900769	0.099998661225
36	72397	14.062214561837	0.099998661068
36	72954	14.162213222745	0.099998660908
36	73511	14.262211883486	0.099998660741
36	74068	14.362210544055	0.099998660569
36	74625	14.462222204449	0.100011660394
36	75182	14.562220864664	0.099998660215
36	75739	14.662219524702	0.099998660038
36	76296	14.762218184569	0.099998659867
36	76853	14.862216844282	0.099998659713
36	77410	14.962215503862	0.09999865958
36	77975	15.062214163332	0.09999865947
36	78532	15.162212822723	0.099998659391
36	79089	15.262211482063	0.09999865934
36	79646	15.362210141386	0.099998659323
36	80203	15.462221800721	0.100011659335
36	80760	15.562220460087	0.099998659366
36	81317	15.662219119508	0.099998659421
36	81874	15.762217778999	0.099998659491
36	82431	15.862216438573	0.099998659574
36	82988	15.962215098246	0.099998659673
36	83553	16.062213758024	0.099998659778
36	84110	16.16221241792	0.099998659896
36	84667	16.262211077941	0.099998660021
36	85224	16.362209738095	0.099998660154
36	85781	16.46222139839	0.100011660295
36	86338	16.56222005883	0.09999866044
36	86895	16.662218719422	0.099998660592
36	87452	16.762217380172	0.09999866075
36	88009	16.862216041084	0.099998660912
36	88566	16.962214702164	0.09999866108
36	89131	17.062213363414	0.09999866125
36	89688	17.162212024832	0.099998661418
36	90245	17.26221068641	0.099998661578
36	90802	17.362222348131	0.100011661721
36	91359	17.462221009976	0.099998661845
36	91916	17.562219671922	0.099998661946
36	92473	17.662218333937	0.099998662015
36	93030	17.76221699599	0.099998662053
36	93587	17.86221565805	0.09999866206
36	94144	17.962214320093	0.099998662043
36	94709	18.06221298209	0.099998661997
36	95266	18.162211644029	0.099998661939
36	95823	18.262210305888	0.099998661859
36	96380	18.362221967654	0.100011661766
36	96937	18.462220629316	0.099998661662
36	97494	18.562219290864	0.099998661548
36	98051	18.662217952288	0.099998661424
36	98608	18.76221661358	0.099998661292
36	99165	18.862215274736	0.099998661156
36	99722	18.962213935745	0.099998661009
36	100287	19.062212596602	0.099998660857
36	100844	19.1622112573	0.099998660698
36	101401	19.262209917837	0.099998660537
36	101958	19.362221578205	0.100011660368
36	102515	19.4622202384	0.099998660195
36	103072	19.56221889842	0.09999866002
36	103629	19.662217558267	0.099998659847
36	104186	19.76221621795	0.099998659683
36	104743	19.862214877482	0.099998659532
36	105300	19.962213536883	0.099998659401
36	105865	20.06221219618	0.099998659297
36	106422	20.162210855402	0.099998659222
36	106979	20.262209514581	0.099998659179
36	107536	20.362221173748	0.100011659167
36	108093	20.462219832928	0.09999865918
36	108650	20.562218492145	0.099998659217
36	109207	20.66221715142	0.099998659275
36	109764	20.762215810769	0.099998659349
36	110321	20.862214470204	0.099998659435
36	110878	20.962213129739	0.099998659535
36	111443	21.062211789384	0.099998659645
36	112000	21.162210449151	0.099998659767
36	112557	21.262222109044	0.100011659893
36	113114	21.362220769073	0.099998660029
36	113671	21.462219429243	0.09999866017
36	114228	21.562218089562	0.099998660319
36	114785	21.662216750036	0.099998660474
36	115342	21.762215410668	0.099998660632
36	115899	21.862214071466	0.099998660798
36	116456	21.962212732433	0.099998660967
36	117021	22.062211393572	0.099998661139
36	117578	22.162210054882	0.09999866131
36	118135	22.262221716353	0.100011661471
36	118692	22.362220377971	0.099998661618
36	119249	22.462219039715	0.099998661744
36	119806	22.562217701561	0.099998661846
36	120363	22.662216363478	0.099998661917
36	120920	22.762215025435	0.099998661957
36	121477	22.862213687403	0.099998661968
36	122034	22.962212349354	0.099998661951
36	122599	23.062211011265	0.099998661911
36	123156	23.162209673115	0.09999866185
36	123713	23.262221334888	0.100011661773
36	124270	23.362219996571	0.099998661683
36	124827	23.462218658153	0.099998661582
36	125384	23.56221731962	0.099998661467
36	125941	23.662215980967	0.099998661347
36	126498	23.762214642184	0.099998661217
36	127055	23.862213303262	0.099998661078
36	127612	23.962211964195	0.099998660933
36	128177	24.062210624979	0.099998660784
36	128734	24.162222285605	0.100011660626
36	129291	24.26222094607	0.099998660465
36	129848	24.362219606367	0.099998660297
36	130405	24.462218266495	0.099998660128
36	130962	24.562216926449	0.099998659954
36	131519	24.662215586229	0.09999865978
36	132076	24.762214245846	0.099998659617
36	132633	24.862212905314	0.099998659468
36	133190	24.962211564653	0.099998659339
36	133755	25.062210223888	0.099998659235
36	134312	25.162221883051	0.100011659163
36	134869	25.26222054217	0.099998659119
36	135426	25.362219201279	0.099998659109
36	135983	25.462217860402	0.099998659123
36	136540	25.562216519563	0.099998659161
36	137097	25.662215178782	0.099998659219
36	137654	25.762213838077	0.099998659295
36	138211	25.86221249746	0.099998659383
36	138768	25.962211156945	0.099998659485
36	139333	26.062209816538	0.099998659593
36	139890	26.162221476251	0.100011659713
36	140447	26.262220136095	0.099998659844
36	141004	26.362218796075	0.09999865998
36	141561	26.462217456196	0.099998660121
36	142118	26.562216116469	0.099998660273
36	142675	26.662214776895	0.099998660426
36	143232	26.762213437481	0.099998660586
36	143789	26.862212098234	0.099998660753
36	144346	26.962210759155	0.099998660921
36	144911	27.062222420249	0.100011661094
36	145468	27.162221081514	0.099998661265
36	146025	27.262219742943	0.099998661429
36	146582	27.362218404518	0.099998661575
36	147139	27.46221706622	0.099998661702
36	147696	27.562215728024	0.099998661804
36	148253	27.662214389902	0.099998661878
36	148810	27.76221305182	0.099998661918
36	149367	27.862211713748	0.099998661928
36	149924	27.96221037566	0.099998661912
36	150489	28.062222037532	0.100011661872
36	151046	28.162220699344	0.099998661812
36	151603	28.262219361082	0.099998661738
36	152160	28.362218022729	0.099998661647
36	152717	28.462216684273	0.099998661544
36	153274	28.562215345706	0.099998661433
36	153831	28.662214007017	0.099998661311
36	154388	28.7622126682	0.099998661183
36	154945	28.862211329245	0.099998661045
36	155502	28.962209990145	0.0999986609
36	156067	29.062221650895	0.10001166075
36	156624	29.162220311488	0.099998660593
36	157181	29.26221897192	0.099998660432
36	157738	29.362217632186	0.099998660266
36	158295	29.462216292281	0.099998660095
36	158852	29.562214952202	0.099998659921
36	159409	29.662213611951	0.099998659749
36	159966	29.762212271538	0.099998659587
36	160523	29.862210930976	0.099998659438
36	161080	29.962209590285	0.099998659309
36	161645	30.062221249491	0.100011659206
36	162202	30.162219908626	0.099998659135
36	162759	30.262218567724	0.099998659098
36	163316	30.36221722682	0.099998659096
36	163873	30.462215885949	0.099998659129
36	164430	30.562214545153	0.099998659204
36	164987	30.662213204466	0.099998659313
36	165544	30.762211863932	0.099998659466
36	166101	30.862210523589	0.099998659657
36	166658	30.962222183474	0.100011659885
36	167223	31.06222084363	0.099998660156
36	167780	31.162219504098	0.099998660468
36	168337	31.262218164918	0.09999866082
36	168894	31.36221682613	0.099998661212
36	169451	31.462215487776	0.099998661646
36	170008	31.562214149898	0.099998662122
36	170565	31.662212812538	0.09999866264
36	171122	31.762211475736	0.099998663198
36	171679	31.862210139536	0.0999986638
36	172236	31.962221803978	0.100011664442
36	172801	32.062220469105	0.099998665127
36	173358	32.162219134949	0.099998665844
36	173915	32.262217801532	0.099998666583
36	174472	32.362216468862	0.09999866733
36	175029	32.462215136937	0.099998668075
36	175586	32.562213805733	0.099998668796
36	176143	32.662212475204	0.099998669471
36	176700	32.762211145292	0.099998670088
36	177257	32.862209815916	0.099998670624
36	177814	32.962221486987	0.100011671071
36	178379	33.062220158401	0.099998671414
36	178936	33.16221883005	0.099998671649
36	179493	33.262217501818	0.099998671768
36	180050	33.362216173581	0.099998671763
36	180607	33.462214845213	0.099998671632
36	181164	33.562213516578	0.099998671365
36	181721	33.662212187549	0.099998670971
36	182278	33.762210857988	0.099998670439
36	182835	33.86220952776	0.099998669772
36	183392	33.962221196723	0.100011668963
36	183957	34.062219864737	0.099998668014
36	184514	34.162218531666	0.099998666929
36	185071	34.262217197366	0.0999986657
36	185628	34.362215861697	0.099998664331
36	186185	34.462214524518	0.099998662821
36	186742	34.562213185691	0.099998661173
36	187299	34.662211845084	0.099998659393
36	187856	34.762210502573	0.099998657489
36	188413	34.862222158052	0.100011655479
36	188970	34.96222081143	0.099998653378
36	189535	35.062219462633	0.099998651203
36	190092	35.162218111607	0.099998648974
36	190649	35.26221675832	0.099998646713
36	191206	35.362215402755	0.099998644435
36	191763	35.462214044905	0.09999864215
36	192320	35.562212684782	0.099998639877
36	192877	35.662211322403	0.099998637621
36	193434	35.762209957793	0.09999863539
36	193991	35.862221590984	0.100011633191
36	194548	35.962220222012	0.099998631028
36	195113	36.062218850921	0.099998628909
36	195670	36.162217477757	0.099998626836
36	196227	36.262216102568	0.099998624811
36	196784	36.362214725404	0.099998622836
36	197341	36.462213346322	0.099998620918
36	197898	36.562211965378	0.099998619056
36	198455	36.662210582627	0.099998617249
36	199012	36.762222198131	0.100011615504
36	199569	36.862220811951	0.09999861382
36	200126	36.962219424149	0.099998612198
36	200691	37.062218034789	0.09999861064
36	201248	37.162216643925	0.099998609136
36	201805	37.262215251602	0.099998607677
36	202362	37.362213857858	0.099998606256
36	202919	37.46221246271	0.099998604852
36	203476	37.56221106616	0.09999860345
36	204033	37.662209668194	0.099998602034
36	204590	37.762221268775	0.100011600581
36	205147	37.862219867856	0.099998599081
36	205704	37.962218465373	0.099998597517
36	206269	38.062217061252	0.099998595879
36	206826	38.162215655415	0.099998594163
36	207383	38.262214247775	0.09999859236
36	207940	38.362212838239	0.099998590464
36	208497	38.46221142671	0.099998588471
36	209054	38.562210013091	0.099998586381
36	209611	38.662221597279	0.100011584188
36	210168	38.762220179172	0.099998581893
36	210725	38.862218758663	0.099998579491
36	211282	38.962217335647	0.099998576984
36	211847	39.062215910015	0.099998574368
36	212404	39.162214481665	0.09999857165
36	212961	39.262213050486	0.099998568821
36	213518	39.362211616369	0.099998565883
36	214075	39.462210179208	0.099998562839
36	214632	39.562221738898	0.10001155969
36	215189	39.662220295338	0.09999855644
36	215746	39.762218848443	0.099998553105
36	216303	39.862217398138	0.099998549695
36	216860	39.962215944365	0.099998546227
36	217425	40.062214487084	0.099998542719
36	217982	40.162213026274	0.09999853919
36	218539	40.262211561935	0.099998535661
36	219096	40.362210094087	0.099998532152
36	219653	40.462221622759	0.100011528672
