file 915712 1512143119                                          
version 2
run SinusoidalAccInjectionAttack-45-20171201-16:45:02-8429
attr CACCSpacing 20
attr attackAcc -30
attr attackPos 7
attr attackSpeed 150
attr attackStart 30
attr attacker 4
attr beaconInterval 0.1
attr configname SinusoidalAccInjectionAttack
attr controller 1
attr datetime 20171201-16:45:02
attr experiment SinusoidalAccInjectionAttack
attr fakeAcc "(4 == 4)"
attr fakePos "(4 == 2)"
attr fakeSpeed "(4 == 3)"
attr inifile omnetpp_45.ini
attr iterationvars "$attacker=4, $attackSpeed=150, $attackPos=7, $attackAcc=-30, $leaderSpeed=150, $controller=1, $CACCSpacing=20, $sController=\"CACC\", $attackStart=30, $0=20, $1=0, $nCars=8, $platoonSize=8, $nLanes=1, $beaconInterval=0.1, $priority=2, $packetSize=200, $ploegH=0.5, $leaderHeadway=1.2, $fakeSpeed=(4 == 3), $fakeAcc=(4 == 4), $fakePos=(4 == 2)"
attr iterationvarsf attacker=4,attackSpeed=150,attackPos=7,attackAcc=-30,leaderSpeed=150,controller=1,CACCSpacing=20,sController=CACC,attackStart=30,20,0,nCars=8,platoonSize=8,nLanes=1,beaconInterval=0.1,priority=2,packetSize=200,ploegH=0.5,leaderHeadway=1.2,fakeSpeed=(4_==_3),fakeAcc=(4_==_4),fakePos=(4_==_2)-
attr leaderHeadway 1.2
attr leaderSpeed 150
attr measurement "$attacker=4, $attackSpeed=150, $attackPos=7, $attackAcc=-30, $leaderSpeed=150, $controller=1, $CACCSpacing=20, $sController=\"CACC\", $attackStart=30, $0=20, $1=0, $nCars=8, $platoonSize=8, $nLanes=1, $beaconInterval=0.1, $priority=2, $packetSize=200, $ploegH=0.5, $leaderHeadway=1.2, $fakeSpeed=(4 == 3), $fakeAcc=(4 == 4), $fakePos=(4 == 2)"
attr nCars 8
attr nLanes 1
attr network scenario
attr packetSize 200
attr platoonSize 8
attr ploegH 0.5
attr priority 2
attr processid 8429
attr repetition 0
attr replication #0
attr resultdir results
attr runnumber 45
attr sController "\"CACC\""
attr seedset 0
param **.coreDebug false
param **.debug false
param **.headway 0.1s
param **.numberOfCars 8
param **.numberOfCarsPerPlatoon 8
param **.numberOfLanes 1
param **.numericController 1
param **.traffic.nCars 8
param **.traffic.nLanes 1
param **.traffic.platoonInsertDistance 20m
param **.traffic.platoonInsertHeadway 0s
param **.traffic.platoonInsertSpeed 150kmph
param **.traffic.platoonInsertTime "1 s"
param **.traffic.platoonLeaderHeadway 1.2s
param **.traffic.platoonSize 8
param **.traffic.platooningVType "\"vtypeauto\""
param **.traffic_type "\"PlatoonsTrafficManager\""
param *.**.nic.mac1609_4.bitrate 6Mbps
param *.**.nic.mac1609_4.txPower 100mW
param *.**.nic.mac1609_4.useServiceChannel false
param *.**.nic.phy80211p.analogueModels "xmldoc(\"config.xml\")"
param *.**.nic.phy80211p.decider "xmldoc(\"config.xml\")"
param *.**.nic.phy80211p.maxTXPower 100mW
param *.**.nic.phy80211p.sensitivity -94dBm
param *.**.nic.phy80211p.thermalNoise -95dBm
param *.**.nic.phy80211p.usePropagationDelay true
param *.**.nic.phy80211p.useThermalNoise true
param *.annotations.draw false
param *.connectionManager.alpha 2.0
param *.connectionManager.carrierFrequency "5.890e9 Hz"
param *.connectionManager.pMax 100mW
param *.connectionManager.sat -94dBm
param *.connectionManager.sendDirect true
param *.manager.autoShutdown true
param *.manager.commandLine "\"sumo --remote-port $port --seed $seed --configuration-file $configFile\""
param *.manager.configFile "\"./sumocfg/freeway.sumo.cfg\""
param *.manager.host "\"localhost\""
param *.manager.margin 25
param *.manager.moduleDisplayString "\"\""
param *.manager.moduleName "\"node\""
param *.manager.moduleType "\"Car\""
param *.manager.updateInterval 0.01s
param *.node[*].appl.attackStart 30s
param *.node[*].appl.attackerType 4
param *.node[*].appl.simulationDuration "60 s"
param *.node[*].appl_type "\"SimplePlatooningApp\""
param *.node[*].helper.nCars 8
param *.node[*].helper.nLanes 1
param *.node[*].helper.platoonSize 8
param *.node[*].helper_type "\"PositionHelper\""
param *.node[*].mobility.x 0
param *.node[*].mobility.y 0
param *.node[*].mobility.z 1.895
param *.node[*].prot.attackStart 30s
param *.node[*].prot.attackerType 4
param *.node[*].prot.attackingNode 3
param *.node[*].prot.beaconingInterval 0.1s
param *.node[*].prot.fakeAcc "(4 == 4)"
param *.node[*].prot.fakePos "(4 == 2)"
param *.node[*].prot.fakeSpeed "(4 == 3)"
param *.node[*].prot.maliciousAcc "-30 mpss"
param *.node[*].prot.maliciousSpeed 150kmph
param *.node[*].prot.packetSize 200
param *.node[*].prot.priority 2
param *.node[*].prot.shiftX "7 m"
param *.node[*].prot.useControllerAcceleration true
param *.node[*].protocol_type "\"SimplePlatooningBeaconing\""
param *.node[*].scenario.accHeadway 0.1s
param *.node[*].scenario.caccC1 0.5
param *.node[*].scenario.caccOmegaN "0.2 Hz"
param *.node[*].scenario.caccSpacing 20m
param *.node[*].scenario.caccXi 1
param *.node[*].scenario.controller "\"CACC\""
param *.node[*].scenario.engineTau "0.5 s"
param *.node[*].scenario.leaderHeadway 1.2s
param *.node[*].scenario.leaderSpeed 150kmph
param *.node[*].scenario.ploegH 0.5s
param *.node[*].scenario.ploegKd 0.7
param *.node[*].scenario.ploegKp 0.2
param *.node[*].scenario.useRealisticEngine false
param *.node[*].scenario_type "\"SinusoidalScenario\""
param *.node[*].unicast.packetLossRate 0
param *.obstacles.debug false
param *.playgroundSizeX 65000m
param *.playgroundSizeY 25000m
param *.playgroundSizeZ 50m
param *.world.use2D false
param *.world.useTorus false

vector 0  scenario.node[0].appl  distance  ETV
vector 1  scenario.node[0].appl  relativeSpeed  ETV
vector 2  scenario.node[0].appl  nodeId  ETV
vector 6  scenario.node[0].appl  acceleration  ETV
vector 7  scenario.node[0].appl  controllerAcceleration  ETV
vector 3  scenario.node[0].appl  speed  ETV
vector 4  scenario.node[0].appl  posx  ETV
vector 5  scenario.node[0].appl  posy  ETV
vector 22  scenario.node[1].appl  distance  ETV
vector 23  scenario.node[1].appl  relativeSpeed  ETV
vector 24  scenario.node[1].appl  nodeId  ETV
vector 28  scenario.node[1].appl  acceleration  ETV
vector 29  scenario.node[1].appl  controllerAcceleration  ETV
vector 25  scenario.node[1].appl  speed  ETV
vector 26  scenario.node[1].appl  posx  ETV
vector 27  scenario.node[1].appl  posy  ETV
vector 44  scenario.node[2].appl  distance  ETV
vector 45  scenario.node[2].appl  relativeSpeed  ETV
vector 46  scenario.node[2].appl  nodeId  ETV
vector 50  scenario.node[2].appl  acceleration  ETV
vector 51  scenario.node[2].appl  controllerAcceleration  ETV
vector 47  scenario.node[2].appl  speed  ETV
vector 48  scenario.node[2].appl  posx  ETV
vector 49  scenario.node[2].appl  posy  ETV
vector 66  scenario.node[3].appl  distance  ETV
vector 67  scenario.node[3].appl  relativeSpeed  ETV
vector 68  scenario.node[3].appl  nodeId  ETV
vector 72  scenario.node[3].appl  acceleration  ETV
vector 73  scenario.node[3].appl  controllerAcceleration  ETV
vector 69  scenario.node[3].appl  speed  ETV
vector 70  scenario.node[3].appl  posx  ETV
vector 71  scenario.node[3].appl  posy  ETV
vector 88  scenario.node[4].appl  distance  ETV
vector 89  scenario.node[4].appl  relativeSpeed  ETV
vector 90  scenario.node[4].appl  nodeId  ETV
vector 94  scenario.node[4].appl  acceleration  ETV
vector 95  scenario.node[4].appl  controllerAcceleration  ETV
vector 91  scenario.node[4].appl  speed  ETV
vector 92  scenario.node[4].appl  posx  ETV
vector 93  scenario.node[4].appl  posy  ETV
vector 110  scenario.node[5].appl  distance  ETV
vector 111  scenario.node[5].appl  relativeSpeed  ETV
vector 112  scenario.node[5].appl  nodeId  ETV
vector 116  scenario.node[5].appl  acceleration  ETV
vector 117  scenario.node[5].appl  controllerAcceleration  ETV
vector 113  scenario.node[5].appl  speed  ETV
vector 114  scenario.node[5].appl  posx  ETV
vector 115  scenario.node[5].appl  posy  ETV
vector 132  scenario.node[6].appl  distance  ETV
vector 133  scenario.node[6].appl  relativeSpeed  ETV
vector 134  scenario.node[6].appl  nodeId  ETV
vector 138  scenario.node[6].appl  acceleration  ETV
vector 139  scenario.node[6].appl  controllerAcceleration  ETV
vector 135  scenario.node[6].appl  speed  ETV
vector 136  scenario.node[6].appl  posx  ETV
vector 137  scenario.node[6].appl  posy  ETV
vector 154  scenario.node[7].appl  distance  ETV
vector 155  scenario.node[7].appl  relativeSpeed  ETV
vector 156  scenario.node[7].appl  nodeId  ETV
vector 160  scenario.node[7].appl  acceleration  ETV
vector 161  scenario.node[7].appl  controllerAcceleration  ETV
vector 157  scenario.node[7].appl  speed  ETV
vector 158  scenario.node[7].appl  posx  ETV
vector 159  scenario.node[7].appl  posy  ETV
vector 80  scenario.node[3].prot  frontDelay  ETV
vector 78  scenario.node[3].prot  frontDelayId  ETV
vector 58  scenario.node[2].prot  frontDelay  ETV
vector 56  scenario.node[2].prot  frontDelayId  ETV
vector 168  scenario.node[7].prot  frontDelay  ETV
vector 166  scenario.node[7].prot  frontDelayId  ETV
vector 35  scenario.node[1].prot  leaderDelay  ETV
vector 33  scenario.node[1].prot  leaderDelayId  ETV
vector 36  scenario.node[1].prot  frontDelay  ETV
vector 34  scenario.node[1].prot  frontDelayId  ETV
vector 57  scenario.node[2].prot  leaderDelay  ETV
vector 55  scenario.node[2].prot  leaderDelayId  ETV
vector 79  scenario.node[3].prot  leaderDelay  ETV
vector 77  scenario.node[3].prot  leaderDelayId  ETV
vector 101  scenario.node[4].prot  leaderDelay  ETV
vector 99  scenario.node[4].prot  leaderDelayId  ETV
vector 123  scenario.node[5].prot  leaderDelay  ETV
vector 121  scenario.node[5].prot  leaderDelayId  ETV
vector 145  scenario.node[6].prot  leaderDelay  ETV
vector 143  scenario.node[6].prot  leaderDelayId  ETV
vector 167  scenario.node[7].prot  leaderDelay  ETV
vector 165  scenario.node[7].prot  leaderDelayId  ETV
vector 124  scenario.node[5].prot  frontDelay  ETV
vector 122  scenario.node[5].prot  frontDelayId  ETV
vector 102  scenario.node[4].prot  frontDelay  ETV
vector 100  scenario.node[4].prot  frontDelayId  ETV
vector 146  scenario.node[6].prot  frontDelay  ETV
vector 144  scenario.node[6].prot  frontDelayId  ETV
vector 8  scenario.node[0].prot  nodeId  ETV
vector 9  scenario.node[0].prot  busyTime  ETV
vector 10  scenario.node[0].prot  collisions  ETV
vector 30  scenario.node[1].prot  nodeId  ETV
vector 31  scenario.node[1].prot  busyTime  ETV
vector 32  scenario.node[1].prot  collisions  ETV
vector 52  scenario.node[2].prot  nodeId  ETV
vector 53  scenario.node[2].prot  busyTime  ETV
vector 54  scenario.node[2].prot  collisions  ETV
vector 74  scenario.node[3].prot  nodeId  ETV
vector 75  scenario.node[3].prot  busyTime  ETV
vector 76  scenario.node[3].prot  collisions  ETV
vector 96  scenario.node[4].prot  nodeId  ETV
vector 97  scenario.node[4].prot  busyTime  ETV
vector 98  scenario.node[4].prot  collisions  ETV
vector 118  scenario.node[5].prot  nodeId  ETV
vector 119  scenario.node[5].prot  busyTime  ETV
vector 120  scenario.node[5].prot  collisions  ETV
vector 140  scenario.node[6].prot  nodeId  ETV
vector 141  scenario.node[6].prot  busyTime  ETV
vector 142  scenario.node[6].prot  collisions  ETV
vector 162  scenario.node[7].prot  nodeId  ETV
vector 163  scenario.node[7].prot  busyTime  ETV
vector 164  scenario.node[7].prot  collisions  ETV
7	11086 7702 232 179804 1.11 33.31 323 -1.5 1.5 1.7460145522981 511.8098403155
6	18788 10134 232 179804 1.11 33.31 323 -1.4722746794739 1.4513407705138 7.7170139009006 339.99454597472
5	28922 6495 232 179804 1.11 33.31 323 36.55 36.55 11805.65 431496.5075
4	35417 9684 232 179804 1.11 33.31 323 205.60653190573 1551.9843653672 284104.92022979 298921309.52858
3	45101 9674 232 179804 1.11 33.31 323 40.376926150007 43.631381416411 13505.7235725 564959.41887099
1	54775 5203 232 179804 1.11 33.31 323 0 0 0 0
0	59978 5526 232 179804 1.11 33.31 323 -1 -1 -323 323
2	65504 5203 232 179804 1.11 33.31 323 0 0 0 0
10	70707 453 5102 177990 2 33 32 0 0 0 0
9	71160 614 5102 177990 2 33 32 0.022969 0.02625 0.836719 0.021888512461
8	71774 421 5102 177990 2 33 32 0 0 0 0
29	72195 9708 233 179805 1.11 33.31 323 -1.5112642293354 1.5120701310328 2.8155122194873 509.82057661535
28	81903 10441 233 179805 1.11 33.31 323 -1.4820302899857 1.4492283745575 8.3604197889109 339.46850505423
27	92344 6818 233 179805 1.11 33.31 323 36.55 36.55 11805.65 431496.5075
26	99162 10008 233 179805 1.11 33.31 323 181.60653190613 1527.8651695243 276340.97967495 285445380.15249
25	109170 10014 233 179805 1.11 33.31 323 40.373848722382 43.630315802076 13504.55468198 564862.1477513
23	119184 10934 233 179805 1.11 33.31 323 -0.07106479949838 0.076625317139602 1.0917203810677 0.88029428346564
22	130118 10018 233 179805 1.11 33.31 323 19.939712146978 20.145466379952 6471.9171770261 129678.09368615
24	140136 5526 233 179805 1.11 33.31 323 1 1 323 323
36	145662 12818 1032 180048 1.254913282269 33.354929263396 322 0.099909240509 0.100091242722 32.200029222677 3.2200063836769
35	158480 12818 1032 180048 1.254913282269 33.354929263396 322 0.099909240509 0.100091242722 32.200029222677 3.2200063836769
34	171298 8695 1032 180048 1.254913282269 33.354929263396 322 1 1 322 322
33	179993 8695 1032 180048 1.254913282269 33.354929263396 322 1 1 322 322
32	188688 453 5103 177991 2 33 32 0 0 0 0
31	189141 646 5103 177991 2 33 32 0.022969 0.02625 0.836719 0.021888512461
30	189787 453 5103 177991 2 33 32 1 1 32 32
51	190240 10378 234 179806 1.11 33.31 323 -1.4951715925185 1.4969403114055 3.5656755212993 498.03334080248
50	200618 10446 234 179806 1.11 33.31 323 -1.4749478864793 1.4483793298595 8.7517430932543 337.3295841529
49	211064 6818 234 179806 1.11 33.31 323 36.55 36.55 11805.65 431496.5075
48	217882 10014 234 179806 1.11 33.31 323 157.60653190613 1503.8652878205 268592.18053218 272375973.94859
47	227896 10017 234 179806 1.11 33.31 323 40.377550369211 43.627312464075 13504.568493257 564861.91206361
45	237913 10935 234 179806 1.11 33.31 323 -0.042015735804142 0.03532163465951 -0.097415474550331 0.21039573884339
44	248848 9995 234 179806 1.11 33.31 323 19.926036210366 20.070368531328 6456.7994189967 129072.37515022
46	258843 5526 234 179806 1.11 33.31 323 2 2 646 1292
58	264369 12766 900 179910 1.22965940166 33.329662281906 322 0.099987240007 0.100000565412 32.200003121796 3.2200006253566
57	277135 12807 1038 180054 1.254913362325 33.354929343446 322 0.099909240517 0.100091242737 32.200029222671 3.2200063836757
56	289942 8657 900 179910 1.22965940166 33.329662281906 322 2 2 644 1288
55	298599 8691 1038 180054 1.254913362325 33.354929343446 322 2 2 644 1288
54	307290 453 5104 177992 2 33 32 0 0 0 0
53	307743 646 5104 177992 2 33 32 0.022969 0.02625 0.836719 0.021888512461
52	308389 453 5104 177992 2 33 32 2 2 64 128
73	308842 10365 235 179807 1.11 33.31 323 -1.4890347549137 1.4892302582842 3.7897686899602 484.40568870883
72	319207 10446 235 179807 1.11 33.31 323 -1.4633940862126 1.4358250220944 8.872438888779 331.26033292826
71	329653 6818 235 179807 1.11 33.31 323 36.55 36.55 11805.65 431496.5075
70	336471 10026 235 179807 1.11 33.31 323 133.60653190613 1479.8486593338 260840.7939702 259671955.93616
69	346497 10011 235 179807 1.11 33.31 323 40.390341218465 43.61714832712 13504.406221823 564844.4606275
67	356508 11052 235 179807 1.11 33.31 323 -0.02257686483572 0.018794911600473 0.07475400319435 0.039536813818798
66	367560 9983 235 179807 1.11 33.31 323 19.965708972717 20.045084605633 6459.3833165529 129175.44749984
68	377543 5526 235 179807 1.11 33.31 323 3 3 969 2907
80	383069 12819 832 179848 1.213906321605 33.313896201908 322 0.099987241264 0.100000544013 32.199990121853 3.2199980255222
79	395888 12778 1044 180060 1.25491344238 33.354929423555 322 0.099909240518 0.100091242747 32.200029222725 3.2200063836865
78	408666 8700 832 179848 1.213906321605 33.313896201908 322 3 3 966 2898
77	417366 8657 1044 180060 1.25491344238 33.354929423555 322 3 3 966 2898
76	426023 453 5105 177993 2 33 32 0 0 0 0
75	426476 646 5105 177993 2 33 32 0.022968 0.02625 0.836718 0.021888466524
74	427122 453 5105 177993 2 33 32 3 3 96 288
95	427575 10380 236 179808 1.11 33.31 323 -14.301881289249 1.4819210752361 -293.70951794984 3163.0676420824
94	437955 10405 236 179808 1.11 33.31 323 -9.0000000000003 1.4260514190163 -257.62100131496 2206.4181254269
93	448360 6818 236 179808 1.11 33.31 323 36.55 36.55 11805.65 431496.5075
92	455178 10022 236 179808 1.11 33.31 323 109.60653190613 1409.6285419117 252571.94345213 245881932.68091
91	465200 10011 236 179808 1.11 33.31 323 16.092275293661 43.605126635788 13032.898765114 534084.62025343
89	475211 11010 236 179808 1.11 33.31 323 -0.013924730917182 26.517730491085 471.41873231915 9154.365010157
88	486221 9998 236 179808 1.11 33.31 323 19.984401944092 65.689963427965 6967.4203689308 164066.68663859
90	496219 5526 236 179808 1.11 33.31 323 4 4 1292 5168
102	501745 13104 1246 179712 1.303564162878 33.303553776963 321 0.09998724155 0.100000563108 32.099989855635 3.2099979722801
101	514849 13144 1050 180066 1.254913522436 33.354929661339 322 0.099909240516 0.100091242749 32.200029380453 3.2200064152332
100	527993 9001 1246 179712 1.303564162878 33.303553776963 321 4 4 1284 5136
99	536994 8708 1050 180066 1.254913522436 33.354929661339 322 4 4 1288 5152
98	545702 453 5106 177994 2 33 32 0 0 0 0
97	546155 646 5106 177994 2 33 32 0.022969 0.02625 0.836719 0.021888512461
96	546801 453 5106 177994 2 33 32 4 4 128 512
139	547254 10706 238 179810 1.11 33.31 323 -4.6079161905639 1.4811501951628 -112.27982256148 748.80975045941
138	557960 10763 238 179810 1.11 33.31 323 -4.2089981718362 1.4264901480509 -94.144571076358 527.86474501526
137	568723 7141 238 179810 1.11 33.31 323 36.55 36.55 11805.65 431496.5075
136	575864 10340 238 179810 1.11 33.31 323 61.606531906128 1393.1160550196 237435.33122487 223376950.68738
135	586204 10311 238 179810 1.11 33.31 323 32.431144268125 43.602528643902 13353.495293482 553080.25908229
133	596515 11264 238 179810 1.11 33.31 323 -6.6150736050137 0.022264279346544 -121.66763131289 611.53892717881
132	607779 10317 238 179810 1.11 33.31 323 8.0389744780675 20.011817385483 6326.6670154028 124880.43050263
134	618096 5849 238 179810 1.11 33.31 323 6 6 1938 11628
146	623945 13097 1312 179772 1.305160322989 33.305162832587 321 0.099987240083 0.100000557666 32.100002751148 3.2100005512263
145	637042 13139 1062 180078 1.254913682546 33.354929714237 322 0.099909240511 0.100091242741 32.200029273241 3.2200063937901
144	650181 8997 1312 179772 1.305160322989 33.305162832587 321 6 6 1926 11556
143	659178 9026 1062 180078 1.254913682546 33.354929714237 322 6 6 1932 11592
142	668204 485 5108 177996 2 33 32 0 0 0 0
141	668689 678 5108 177996 2 33 32 0.022969 0.02625 0.836719 0.021888512461
140	669367 485 5108 177996 2 33 32 6 6 192 1152
161	669852 10736 239 179811 1.11 33.31 323 -3.8580634587368 1.4938221776623 -69.262075319715 586.7482493451
160	680588 10805 239 179811 1.11 33.31 323 -3.3724402132222 1.4301669794349 -52.027114495655 375.61261243335
159	691393 7141 239 179811 1.11 33.31 323 36.55 36.55 11805.65 431496.5075
158	698534 10336 239 179811 1.11 33.31 323 37.606529998779 1375.8721487517 229754.30647207 212358873.95254
157	708870 10329 239 179811 1.11 33.31 323 36.621254863605 43.60713420096 13422.528790772 558213.36171585
155	719199 11441 239 179811 1.11 33.31 323 -4.1480206137618 0.010778949642088 -68.092051579428 201.43049777606
154	730640 10337 239 179811 1.11 33.31 323 13.327708479791 20.027111078367 6390.4054227469 126711.07641589
156	740977 5849 239 179811 1.11 33.31 323 7 7 2261 15827
168	746826 13137 975 179997 1.254434801937 33.354437708623 322 0.099987240242 0.100000567374 32.200003148236 3.2200006306446
167	759963 13149 1068 180084 1.254913762602 33.354929771193 322 0.099909240517 0.100091242748 32.200029250141 3.22000638917
166	773112 9027 975 179997 1.254434801937 33.354437708623 322 7 7 2254 15778
165	782139 9032 1068 180084 1.254913762602 33.354929771193 322 7 7 2254 15778
164	791171 485 5109 177997 2 33 32 0 0 0 0
163	791656 678 5109 177997 2 33 32 0.022969 0.02625 0.836719 0.021888512461
162	792334 485 5109 177997 2 33 32 7 7 224 1568
110	792819 10339 237 180222 1.11 33.38 324 0 20.032942193939 6232.3571424295 122882.89172106
111	803158 11234 237 180222 1.11 33.38 324 -9.6292032536365 0.039397556413839 -204.35825583983 1567.5875269652
112	814392 5868 237 180222 1.11 33.38 324 5 5 1620 8100
113	820260 10355 237 180222 1.11 33.38 324 25.436405307189 43.597268524374 13255.652058457 545511.78014506
114	830615 10381 237 180222 1.11 33.38 324 85.606531906128 1406.8089397205 246458.34158718 236561624.48545
115	840996 7164 237 180222 1.11 33.38 324 36.55 36.55 11842.2 432832.41
116	848160 10815 237 180222 1.11 33.38 324 -5.2258590918072 1.4230217380288 -165.912427239 1015.7064989262
117	858975 10755 237 180222 1.11 33.38 324 -6.5442134456602 1.4914430883069 -190.57841679092 1353.4090865246
118	869730 485 5107 177995 2 33 32 5 5 160 800
119	870215 678 5107 177995 2 33 32 0.022968 0.02625 0.836718 0.021888466524
120	870893 485 5107 177995 2 33 32 0 0 0 0
121	871378 9029 1056 180072 1.254913602491 33.354929675415 322 5 5 1610 8050
122	880407 9027 1172 180182 1.265750082823 33.365752894801 322 5 5 1610 8050
123	889434 13141 1056 180072 1.254913602491 33.354929675415 322 0.09990924051 0.100091242743 32.200029314474 3.220006402037
124	902575 13137 1172 180182 1.265750082823 33.365752894801 322 0.099987240401 0.100000564019 32.200003053528 3.2200006117017
