file 1061223 1501700515                                         
version 2
run SinusoidalAccInjectionAttack-228-20170802-21:01:33-52291
attr CACCSpacing 20
attr attackAcc 10
attr attackPos 7
attr attackSpeed 150
attr attackStart 30
attr attacker 4
attr beaconInterval 0.1
attr configname SinusoidalAccInjectionAttack
attr controller 1
attr datetime 20170802-21:01:33
attr experiment SinusoidalAccInjectionAttack
attr fakeAcc "(4 == 4)"
attr fakePos "(4 == 2)"
attr fakeSpeed "(4 == 3)"
attr inifile omnetpp_228.ini
attr iterationvars "$attacker=4, $attackSpeed=150, $attackPos=7, $attackAcc=10, $leaderSpeed=150, $controller=1, $CACCSpacing=20, $sController=\"CACC\", $attackStart=30, $0=20, $1=0, $nCars=8, $platoonSize=8, $nLanes=1, $beaconInterval=0.1, $priority=2, $packetSize=200, $ploegH=0.5, $leaderHeadway=1.2, $fakeSpeed=(4 == 3), $fakeAcc=(4 == 4), $fakePos=(4 == 2)"
attr iterationvarsf attacker=4,attackSpeed=150,attackPos=7,attackAcc=10,leaderSpeed=150,controller=1,CACCSpacing=20,sController=CACC,attackStart=30,20,0,nCars=8,platoonSize=8,nLanes=1,beaconInterval=0.1,priority=2,packetSize=200,ploegH=0.5,leaderHeadway=1.2,fakeSpeed=(4_==_3),fakeAcc=(4_==_4),fakePos=(4_==_2)-
attr leaderHeadway 1.2
attr leaderSpeed 150
attr measurement "$attacker=4, $attackSpeed=150, $attackPos=7, $attackAcc=10, $leaderSpeed=150, $controller=1, $CACCSpacing=20, $sController=\"CACC\", $attackStart=30, $0=20, $1=0, $nCars=8, $platoonSize=8, $nLanes=1, $beaconInterval=0.1, $priority=2, $packetSize=200, $ploegH=0.5, $leaderHeadway=1.2, $fakeSpeed=(4 == 3), $fakeAcc=(4 == 4), $fakePos=(4 == 2)"
attr nCars 8
attr nLanes 1
attr network scenario
attr packetSize 200
attr platoonSize 8
attr ploegH 0.5
attr priority 2
attr processid 52291
attr repetition 3
attr replication #3
attr resultdir results
attr runnumber 228
attr sController "\"CACC\""
attr seedset 3
param **.coreDebug false
param **.debug false
param **.headway 0.1s
param **.numberOfCars 8
param **.numberOfCarsPerPlatoon 8
param **.numberOfLanes 1
param **.numericController 1
param **.traffic.nCars 8
param **.traffic.nLanes 1
param **.traffic.platoonInsertDistance 20m
param **.traffic.platoonInsertHeadway 0s
param **.traffic.platoonInsertSpeed 150kmph
param **.traffic.platoonInsertTime "1 s"
param **.traffic.platoonLeaderHeadway 1.2s
param **.traffic.platoonSize 8
param **.traffic.platooningVType "\"vtypeauto\""
param **.traffic_type "\"PlatoonsTrafficManager\""
param *.**.nic.mac1609_4.bitrate 6Mbps
param *.**.nic.mac1609_4.txPower 100mW
param *.**.nic.mac1609_4.useServiceChannel false
param *.**.nic.phy80211p.analogueModels "xmldoc(\"config.xml\")"
param *.**.nic.phy80211p.decider "xmldoc(\"config.xml\")"
param *.**.nic.phy80211p.maxTXPower 100mW
param *.**.nic.phy80211p.sensitivity -94dBm
param *.**.nic.phy80211p.thermalNoise -95dBm
param *.**.nic.phy80211p.usePropagationDelay true
param *.**.nic.phy80211p.useThermalNoise true
param *.annotations.draw false
param *.connectionManager.alpha 2.0
param *.connectionManager.carrierFrequency "5.890e9 Hz"
param *.connectionManager.pMax 100mW
param *.connectionManager.sat -94dBm
param *.connectionManager.sendDirect true
param *.manager.autoShutdown true
param *.manager.commandLine "\"sumo --remote-port $port --seed $seed --configuration-file $configFile\""
param *.manager.configFile "\"./sumocfg/freeway.sumo.cfg\""
param *.manager.host "\"localhost\""
param *.manager.margin 25
param *.manager.moduleDisplayString "\"\""
param *.manager.moduleName "\"node\""
param *.manager.moduleType "\"Car\""
param *.manager.updateInterval 0.01s
param *.node[*].appl.attackStart 30s
param *.node[*].appl.attackerType 4
param *.node[*].appl.simulationDuration "60 s"
param *.node[*].appl_type "\"SimplePlatooningApp\""
param *.node[*].helper.nCars 8
param *.node[*].helper.nLanes 1
param *.node[*].helper.platoonSize 8
param *.node[*].helper_type "\"PositionHelper\""
param *.node[*].mobility.x 0
param *.node[*].mobility.y 0
param *.node[*].mobility.z 1.895
param *.node[*].prot.attackStart 30s
param *.node[*].prot.attackerType 4
param *.node[*].prot.attackingNode 3
param *.node[*].prot.beaconingInterval 0.1s
param *.node[*].prot.fakeAcc "(4 == 4)"
param *.node[*].prot.fakePos "(4 == 2)"
param *.node[*].prot.fakeSpeed "(4 == 3)"
param *.node[*].prot.maliciousAcc "10 mpss"
param *.node[*].prot.maliciousSpeed 150kmph
param *.node[*].prot.packetSize 200
param *.node[*].prot.priority 2
param *.node[*].prot.shiftX "7 m"
param *.node[*].prot.useControllerAcceleration true
param *.node[*].protocol_type "\"SimplePlatooningBeaconing\""
param *.node[*].scenario.accHeadway 0.1s
param *.node[*].scenario.caccC1 0.5
param *.node[*].scenario.caccOmegaN "0.2 Hz"
param *.node[*].scenario.caccSpacing 20m
param *.node[*].scenario.caccXi 1
param *.node[*].scenario.controller "\"CACC\""
param *.node[*].scenario.engineTau "0.5 s"
param *.node[*].scenario.leaderHeadway 1.2s
param *.node[*].scenario.leaderOscillationFrequency "0.2 Hz"
param *.node[*].scenario.leaderSpeed 150kmph
param *.node[*].scenario.oscillationAmplitude "10 kmph"
param *.node[*].scenario.ploegH 0.5s
param *.node[*].scenario.ploegKd 0.7
param *.node[*].scenario.ploegKp 0.2
param *.node[*].scenario.startOscillating "5 s"
param *.node[*].scenario.useRealisticEngine false
param *.node[*].scenario_type "\"SinusoidalScenario\""
param *.node[*].unicast.packetLossRate 0
param *.obstacles.debug false
param *.playgroundSizeX 65000m
param *.playgroundSizeY 25000m
param *.playgroundSizeZ 50m
param *.world.use2D false
param *.world.useTorus false

vector 0  scenario.node[0].appl  distance  ETV
vector 1  scenario.node[0].appl  relativeSpeed  ETV
vector 2  scenario.node[0].appl  nodeId  ETV
vector 6  scenario.node[0].appl  acceleration  ETV
vector 7  scenario.node[0].appl  controllerAcceleration  ETV
vector 3  scenario.node[0].appl  speed  ETV
vector 4  scenario.node[0].appl  posx  ETV
vector 5  scenario.node[0].appl  posy  ETV
vector 22  scenario.node[1].appl  distance  ETV
vector 23  scenario.node[1].appl  relativeSpeed  ETV
vector 24  scenario.node[1].appl  nodeId  ETV
vector 28  scenario.node[1].appl  acceleration  ETV
vector 29  scenario.node[1].appl  controllerAcceleration  ETV
vector 25  scenario.node[1].appl  speed  ETV
vector 26  scenario.node[1].appl  posx  ETV
vector 27  scenario.node[1].appl  posy  ETV
vector 44  scenario.node[2].appl  distance  ETV
vector 45  scenario.node[2].appl  relativeSpeed  ETV
vector 46  scenario.node[2].appl  nodeId  ETV
vector 50  scenario.node[2].appl  acceleration  ETV
vector 51  scenario.node[2].appl  controllerAcceleration  ETV
vector 47  scenario.node[2].appl  speed  ETV
vector 48  scenario.node[2].appl  posx  ETV
vector 49  scenario.node[2].appl  posy  ETV
vector 66  scenario.node[3].appl  distance  ETV
vector 67  scenario.node[3].appl  relativeSpeed  ETV
vector 68  scenario.node[3].appl  nodeId  ETV
vector 72  scenario.node[3].appl  acceleration  ETV
vector 73  scenario.node[3].appl  controllerAcceleration  ETV
vector 69  scenario.node[3].appl  speed  ETV
vector 70  scenario.node[3].appl  posx  ETV
vector 71  scenario.node[3].appl  posy  ETV
vector 88  scenario.node[4].appl  distance  ETV
vector 89  scenario.node[4].appl  relativeSpeed  ETV
vector 90  scenario.node[4].appl  nodeId  ETV
vector 94  scenario.node[4].appl  acceleration  ETV
vector 95  scenario.node[4].appl  controllerAcceleration  ETV
vector 91  scenario.node[4].appl  speed  ETV
vector 92  scenario.node[4].appl  posx  ETV
vector 93  scenario.node[4].appl  posy  ETV
vector 110  scenario.node[5].appl  distance  ETV
vector 111  scenario.node[5].appl  relativeSpeed  ETV
vector 112  scenario.node[5].appl  nodeId  ETV
vector 116  scenario.node[5].appl  acceleration  ETV
vector 117  scenario.node[5].appl  controllerAcceleration  ETV
vector 113  scenario.node[5].appl  speed  ETV
vector 114  scenario.node[5].appl  posx  ETV
vector 115  scenario.node[5].appl  posy  ETV
vector 132  scenario.node[6].appl  distance  ETV
vector 133  scenario.node[6].appl  relativeSpeed  ETV
vector 134  scenario.node[6].appl  nodeId  ETV
vector 138  scenario.node[6].appl  acceleration  ETV
vector 139  scenario.node[6].appl  controllerAcceleration  ETV
vector 135  scenario.node[6].appl  speed  ETV
vector 136  scenario.node[6].appl  posx  ETV
vector 137  scenario.node[6].appl  posy  ETV
vector 154  scenario.node[7].appl  distance  ETV
vector 155  scenario.node[7].appl  relativeSpeed  ETV
vector 156  scenario.node[7].appl  nodeId  ETV
vector 160  scenario.node[7].appl  acceleration  ETV
vector 161  scenario.node[7].appl  controllerAcceleration  ETV
vector 157  scenario.node[7].appl  speed  ETV
vector 158  scenario.node[7].appl  posx  ETV
vector 159  scenario.node[7].appl  posy  ETV
vector 35  scenario.node[1].prot  leaderDelay  ETV
vector 33  scenario.node[1].prot  leaderDelayId  ETV
vector 36  scenario.node[1].prot  frontDelay  ETV
vector 34  scenario.node[1].prot  frontDelayId  ETV
vector 57  scenario.node[2].prot  leaderDelay  ETV
vector 55  scenario.node[2].prot  leaderDelayId  ETV
vector 79  scenario.node[3].prot  leaderDelay  ETV
vector 77  scenario.node[3].prot  leaderDelayId  ETV
vector 101  scenario.node[4].prot  leaderDelay  ETV
vector 99  scenario.node[4].prot  leaderDelayId  ETV
vector 123  scenario.node[5].prot  leaderDelay  ETV
vector 121  scenario.node[5].prot  leaderDelayId  ETV
vector 145  scenario.node[6].prot  leaderDelay  ETV
vector 143  scenario.node[6].prot  leaderDelayId  ETV
vector 167  scenario.node[7].prot  leaderDelay  ETV
vector 165  scenario.node[7].prot  leaderDelayId  ETV
vector 168  scenario.node[7].prot  frontDelay  ETV
vector 166  scenario.node[7].prot  frontDelayId  ETV
vector 58  scenario.node[2].prot  frontDelay  ETV
vector 56  scenario.node[2].prot  frontDelayId  ETV
vector 124  scenario.node[5].prot  frontDelay  ETV
vector 122  scenario.node[5].prot  frontDelayId  ETV
vector 80  scenario.node[3].prot  frontDelay  ETV
vector 78  scenario.node[3].prot  frontDelayId  ETV
vector 146  scenario.node[6].prot  frontDelay  ETV
vector 144  scenario.node[6].prot  frontDelayId  ETV
vector 102  scenario.node[4].prot  frontDelay  ETV
vector 100  scenario.node[4].prot  frontDelayId  ETV
vector 8  scenario.node[0].prot  nodeId  ETV
vector 9  scenario.node[0].prot  busyTime  ETV
vector 10  scenario.node[0].prot  collisions  ETV
vector 30  scenario.node[1].prot  nodeId  ETV
vector 31  scenario.node[1].prot  busyTime  ETV
vector 32  scenario.node[1].prot  collisions  ETV
vector 52  scenario.node[2].prot  nodeId  ETV
vector 53  scenario.node[2].prot  busyTime  ETV
vector 54  scenario.node[2].prot  collisions  ETV
vector 74  scenario.node[3].prot  nodeId  ETV
vector 75  scenario.node[3].prot  busyTime  ETV
vector 76  scenario.node[3].prot  collisions  ETV
vector 96  scenario.node[4].prot  nodeId  ETV
vector 97  scenario.node[4].prot  busyTime  ETV
vector 98  scenario.node[4].prot  collisions  ETV
vector 118  scenario.node[5].prot  nodeId  ETV
vector 119  scenario.node[5].prot  busyTime  ETV
vector 120  scenario.node[5].prot  collisions  ETV
vector 140  scenario.node[6].prot  nodeId  ETV
vector 141  scenario.node[6].prot  busyTime  ETV
vector 142  scenario.node[6].prot  collisions  ETV
vector 162  scenario.node[7].prot  nodeId  ETV
vector 163  scenario.node[7].prot  busyTime  ETV
vector 164  scenario.node[7].prot  collisions  ETV
7	11251 8873 232 208251 1.11 38.41 374 -1.5 1.5 0.24588949335536 605.15780388015
6	20124 11758 232 208251 1.11 38.41 374 -1.4722746794739 1.4513430531451 6.5352963167243 403.18683527645
5	31882 7566 232 208251 1.11 38.41 374 36.55 36.55 13669.7 499627.535
4	39448 11264 232 208251 1.11 38.41 374 211.51262931784 1770.4652761303 370954.40205542 443951190.653
3	50712 11250 232 208251 1.11 38.41 374 40.376864578797 43.631381416411 15631.430835068 653598.96921426
1	61962 6070 232 208251 1.11 38.41 374 0 0 0 0
0	68032 6444 232 208251 1.11 38.41 374 -1 -1 -374 374
2	74476 6070 232 208251 1.11 38.41 374 0 0 0 0
10	80546 528 5056 205834 2 38 37 0 0 0 0
9	81074 966 5056 205834 2 38 37 0.022755747372 0.026262189362 0.967755842221 0.025324079336669
8	82040 491 5056 205834 2 38 37 0 0 0 0
29	82531 10916 233 208252 1.11 38.41 374 -1.5201885308666 1.5215379204632 0.74422682889515 604.99391267568
28	93447 12114 233 208252 1.11 38.41 374 -1.4845166983122 1.4492363480585 7.3355904563385 402.72746696396
27	105561 7940 233 208252 1.11 38.41 374 36.55 36.55 13669.7 499627.535
26	113501 11638 233 208252 1.11 38.41 374 187.51262931824 1746.2807056848 361950.84393323 426293729.45652
25	125139 11636 233 208252 1.11 38.41 374 40.371478735482 43.62712233618 15629.614499987 653447.96345674
23	136775 12684 233 208252 1.11 38.41 374 -0.083288756717003 0.092346611381046 1.7509821180744 1.4474860967132
22	149459 11635 233 208252 1.11 38.41 374 19.942679106234 20.223670158178 7507.5217954897 150704.82037253
24	161094 6444 233 208252 1.11 38.41 374 1 1 374 374
36	167538 14861 836 207742 1.269559161495 38.36955926099 372 0.099987080745 0.100000090949 37.200000180935 3.7200000365232
35	182399 14861 836 207742 1.269559161495 38.36955926099 372 0.099987080745 0.100000090949 37.200000180935 3.7200000365232
34	197260 10092 836 207742 1.269559161495 38.36955926099 372 1 1 372 372
33	207352 10092 836 207742 1.269559161495 38.36955926099 372 1 1 372 372
32	217444 528 5057 205835 2 38 37 0 0 0 0
31	217972 999 5057 205835 2 38 37 0.022755827428 0.026262189695 0.96775592299 0.025324083017588
30	218971 528 5057 205835 2 38 37 1 1 37 37
51	219499 10762 234 208253 1.11 38.41 374 -1.5268714810323 1.5218527219734 0.3261747279793 605.52332230491
50	230261 12122 234 208253 1.11 38.41 374 -1.4757144547325 1.4406976858346 7.4836294990632 398.89304181132
49	242383 7940 234 208253 1.11 38.41 374 36.55 36.55 13669.7 499627.535
48	250323 11641 234 208253 1.11 38.41 374 163.51262931824 1722.2095274176 352963.12200496 409107308.7409
47	261964 11642 234 208253 1.11 38.41 374 40.375456256857 43.620133812015 15628.90662689 653386.16091886
45	273606 12969 234 208253 1.11 38.41 374 -0.0098541919231039 0.013218819442223 0.63451719214838 0.012880498126543
44	286575 11628 234 208253 1.11 38.41 374 19.996915685746 20.07423865525 7491.7077708063 150068.85570941
46	298203 6444 234 208253 1.11 38.41 374 2 2 748 1496
58	304647 14858 1046 207946 1.299191202215 38.399191279068 372 0.099987083066 0.100000090981 37.200000158293 3.7200000319947
57	319505 14851 842 207748 1.269559241551 38.369559341284 372 0.099987080748 0.100000090948 37.200000181173 3.7200000365708
56	334356 10095 1046 207946 1.299191202215 38.399191279068 372 2 2 744 1488
55	344451 10086 842 207748 1.269559241551 38.369559341284 372 2 2 744 1488
54	354537 528 5058 205836 2 38 37 0 0 0 0
53	355065 1000 5058 205836 2 38 37 0.022755907483 0.026262189765 0.967756003293 0.025324086674052
52	356065 528 5058 205836 2 38 37 2 2 74 148
73	356593 12013 235 208254 1.11 38.41 374 -1.4873962129769 1.490649065558 2.2433246042017 570.4634568658
72	368606 12101 235 208254 1.11 38.41 374 -1.4629037321995 1.4324081196619 7.7442639405177 392.62833280875
71	380707 7940 235 208254 1.11 38.41 374 36.55 36.55 13669.7 499627.535
70	388647 11646 235 208254 1.11 38.41 374 139.51262168884 1698.2018013051 343992.2209278 392393988.93734
69	400293 11649 235 208254 1.11 38.41 374 40.386146088838 43.611293615819 15628.837840569 653376.51773224
67	411942 12699 235 208254 1.11 38.41 374 -0.037916122811858 0.029305423243315 -0.0060499742005433 0.14378892749231
66	424641 11628 235 208254 1.11 38.41 374 19.934505787024 20.063152402204 7474.899701438 149396.38855289
68	436269 6444 235 208254 1.11 38.41 374 3 3 1122 3366
80	442713 14860 1180 208081 1.300212602492 38.400212547535 372 0.099987080261 0.100000090932 37.200000026483 3.7200000056328
79	457573 14858 848 207754 1.269559321606 38.369559421369 372 0.099987080752 0.100000090947 37.200000181203 3.7200000365768
78	472431 10105 1180 208081 1.300212602492 38.400212547535 372 3 3 1116 3348
77	482536 10097 848 207754 1.269559321606 38.369559421369 372 3 3 1116 3348
76	492633 528 5059 205837 2 38 37 0 0 0 0
75	493161 1003 5059 205837 2 38 37 0.022754827428 0.026262189643 0.967754923187 0.025324037517273
74	494164 528 5059 205837 2 38 37 3 3 111 333
117	494692 12182 237 208256 1.11 38.41 374 -1.5013449392451 1.5026796507056 47.984428615035 529.86985709791
116	506874 12500 237 208256 1.11 38.41 374 -1.4475786669514 1.4822129415123 46.382321765157 365.19881383112
115	519374 8314 237 208256 1.11 38.41 374 36.55 36.55 13669.7 499627.535
114	527688 12003 237 208256 1.11 38.41 374 91.51262550354 1661.3944466599 326259.70218681 360934755.41757
113	539691 12013 237 208256 1.11 38.41 374 40.398857005536 46.295402802711 15742.106807962 663133.56454159
111	551704 12957 237 208256 1.11 38.41 374 -0.18523268549509 2.2687691976662 87.098100733831 163.91867228575
110	564661 12004 237 208256 1.11 38.41 374 19.690084052428 28.653744134608 7664.6367277145 158066.33214099
112	576665 6818 237 208256 1.11 38.41 374 5 5 1870 9350
124	583483 15200 1112 208024 1.299591442381 38.399591482181 372 0.099987080523 0.100000091004 37.20000012124 3.7200000245841
123	598683 15238 860 207766 1.269559481717 38.369559544777 372 0.099987080751 0.100000090967 37.2000001445 3.7200000292362
122	613921 10460 1112 208024 1.299591442381 38.399591482181 372 5 5 1860 9300
121	624381 10465 860 207766 1.269559481717 38.369559544777 372 5 5 1860 9300
120	634846 565 5061 205839 2 38 37 0 0 0 0
119	635411 1036 5061 205839 2 38 37 0.022754667317 0.026262189611 0.967754795434 0.025324031929509
118	636447 565 5061 205839 2 38 37 5 5 185 925
139	637012 12195 238 208257 1.11 38.41 374 -1.4835635202841 1.5 30.964773909475 526.03488801804
138	649207 12490 238 208257 1.11 38.41 374 -1.4515357189303 1.4719760787436 32.022584082787 371.75046423773
137	661697 8314 238 208257 1.11 38.41 374 36.55 36.55 13669.7 499627.535
136	670011 12016 238 208257 1.11 38.41 374 67.51262550354 1632.5972596099 317187.04101507 345183426.63147
135	682027 12030 238 208257 1.11 38.41 374 40.39080595389 44.886665748343 15693.635303352 658891.58862392
133	694057 12910 238 208257 1.11 38.41 374 -0.13675796837546 1.4169262330678 48.007681391449 53.10403367825
132	706967 11971 238 208257 1.11 38.41 374 19.805700843039 24.768798550127 7575.6917416416 153738.49019353
134	718938 6818 238 208257 1.11 38.41 374 6 6 2244 13464
146	725756 15234 1249 208150 1.305604842658 38.405604766575 372 0.099987081777 0.100000090954 37.200000005357 3.7200000014073
145	740990 15223 866 207772 1.269559561772 38.369559640598 372 0.099987080748 0.100000090963 37.200000160266 3.7200000323894
144	756213 10479 1249 208150 1.305604842658 38.405604766575 372 6 6 2232 13392
143	766692 10457 866 207772 1.269559561772 38.369559640598 372 6 6 2232 13392
142	777149 565 5062 205840 2 38 37 0 0 0 0
141	777714 1039 5062 205840 2 38 37 0.022755587261 0.026262189691 0.967755701269 0.02532407305567
140	778753 565 5062 205840 2 38 37 6 6 222 1332
161	779318 12053 239 208258 1.11 38.41 374 -1.5023459449205 1.5011641349245 20.377299332463 559.60426511003
160	791371 12505 239 208258 1.11 38.41 374 -1.4499547048644 1.4662567656934 22.645255504624 375.37345709856
159	803876 8314 239 208258 1.11 38.41 374 36.55 36.55 13669.7 499627.535
158	812190 12009 239 208258 1.11 38.41 374 43.512624549866 1605.7532804004 308156.10445082 330003196.09572
157	824199 12006 239 208258 1.11 38.41 374 40.3962962815 44.051610243445 15664.869272568 656419.26815544
155	836205 13283 239 208258 1.11 38.41 374 -0.056188952331702 0.92639717769566 28.445804943863 18.979128942725
154	849488 12009 239 208258 1.11 38.41 374 19.905848272559 22.825473513303 7534.3612436358 151878.08218018
156	861497 6818 239 208258 1.11 38.41 374 7 7 2618 18326
168	868315 15228 980 207880 1.292108801938 38.392108908886 372 0.099987067023 0.10001292536 37.200000188388 3.7200000383481
167	883543 15229 872 207778 1.269559641828 38.369559729987 372 0.09998708075 0.100000090965 37.200000169599 3.720000034256
166	898772 10467 980 207880 1.292108801938 38.392108908886 372 7 7 2604 18228
165	909239 10477 872 207778 1.269559641828 38.369559729987 372 7 7 2604 18228
164	919716 565 5063 205841 2 38 37 0 0 0 0
163	920281 1038 5063 205841 2 38 37 0.022755507206 0.026262189656 0.967755612945 0.025324068978153
162	921319 565 5063 205841 2 38 37 7 7 259 1813
88	921884 11636 236 208263 1.11 38.43 375 0 20.645097671681 7078.147392624 138781.95751699
89	933520 12786 236 208263 1.11 38.43 375 -6.1152022471273 0.38740500300135 -207.25151758217 950.71120125901
90	946306 6462 236 208263 1.11 38.43 375 4 4 1500 6000
91	952768 11676 236 208263 1.11 38.43 375 40.370957273611 48.578835141768 15878.475548406 673432.66542321
92	964444 11664 236 208263 1.11 38.43 375 115.51262168884 1695.0652905817 337117.16000321 380291181.57119
93	976108 7962 236 208263 1.11 38.43 375 36.55 36.55 13706.25 500963.4375
94	984070 12101 236 208263 1.11 38.43 375 -1.4535830346176 1.6909734957963 69.658569247807 391.33798975559
95	996171 11948 236 208263 1.11 38.43 375 -1.4832319675728 1.7643242507237 70.107426776185 522.26670788857
96	1008119 528 5060 205838 2 38 37 4 4 148 592
97	1008647 1001 5060 205838 2 38 37 0.022755747372 0.026262189601 0.967755901389 0.025324082443016
98	1009648 528 5060 205838 2 38 37 0 0 0 0
99	1010176 10104 854 207760 1.269559401662 38.369559436083 372 4 4 1488 5952
100	1020280 10473 1312 208213 1.306018002769 38.406017807374 372 4 4 1488 5952
101	1030753 15240 854 207760 1.269559401662 38.369559436083 372 0.099987080753 0.100000090928 37.200000115861 3.7200000235084
102	1045993 15230 1312 208213 1.306018002769 38.406017807374 372 0.099896090962 0.10009108144 37.199934886045 3.7199876202585
