file 972025 1501699737                                          
version 2
run SinusoidalAccInjectionAttack-180-20170802-20:48:39-88529
attr CACCSpacing 5
attr attackAcc 10
attr attackPos 7
attr attackSpeed 150
attr attackStart 30
attr attacker 4
attr beaconInterval 0.1
attr configname SinusoidalAccInjectionAttack
attr controller 1
attr datetime 20170802-20:48:39
attr experiment SinusoidalAccInjectionAttack
attr fakeAcc "(4 == 4)"
attr fakePos "(4 == 2)"
attr fakeSpeed "(4 == 3)"
attr inifile omnetpp_180.ini
attr iterationvars "$attacker=4, $attackSpeed=150, $attackPos=7, $attackAcc=10, $leaderSpeed=50, $controller=1, $CACCSpacing=5, $sController=\"CACC\", $attackStart=30, $0=5, $1=0, $nCars=8, $platoonSize=8, $nLanes=1, $beaconInterval=0.1, $priority=2, $packetSize=200, $ploegH=0.5, $leaderHeadway=1.2, $fakeSpeed=(4 == 3), $fakeAcc=(4 == 4), $fakePos=(4 == 2)"
attr iterationvarsf attacker=4,attackSpeed=150,attackPos=7,attackAcc=10,leaderSpeed=50,controller=1,CACCSpacing=5,sController=CACC,attackStart=30,5,0,nCars=8,platoonSize=8,nLanes=1,beaconInterval=0.1,priority=2,packetSize=200,ploegH=0.5,leaderHeadway=1.2,fakeSpeed=(4_==_3),fakeAcc=(4_==_4),fakePos=(4_==_2)-
attr leaderHeadway 1.2
attr leaderSpeed 50
attr measurement "$attacker=4, $attackSpeed=150, $attackPos=7, $attackAcc=10, $leaderSpeed=50, $controller=1, $CACCSpacing=5, $sController=\"CACC\", $attackStart=30, $0=5, $1=0, $nCars=8, $platoonSize=8, $nLanes=1, $beaconInterval=0.1, $priority=2, $packetSize=200, $ploegH=0.5, $leaderHeadway=1.2, $fakeSpeed=(4 == 3), $fakeAcc=(4 == 4), $fakePos=(4 == 2)"
attr nCars 8
attr nLanes 1
attr network scenario
attr packetSize 200
attr platoonSize 8
attr ploegH 0.5
attr priority 2
attr processid 88529
attr repetition 0
attr replication #0
attr resultdir results
attr runnumber 180
attr sController "\"CACC\""
attr seedset 0
param **.coreDebug false
param **.debug false
param **.headway 0.1s
param **.numberOfCars 8
param **.numberOfCarsPerPlatoon 8
param **.numberOfLanes 1
param **.numericController 1
param **.traffic.nCars 8
param **.traffic.nLanes 1
param **.traffic.platoonInsertDistance 5m
param **.traffic.platoonInsertHeadway 0s
param **.traffic.platoonInsertSpeed 50kmph
param **.traffic.platoonInsertTime "1 s"
param **.traffic.platoonLeaderHeadway 1.2s
param **.traffic.platoonSize 8
param **.traffic.platooningVType "\"vtypeauto\""
param **.traffic_type "\"PlatoonsTrafficManager\""
param *.**.nic.mac1609_4.bitrate 6Mbps
param *.**.nic.mac1609_4.txPower 100mW
param *.**.nic.mac1609_4.useServiceChannel false
param *.**.nic.phy80211p.analogueModels "xmldoc(\"config.xml\")"
param *.**.nic.phy80211p.decider "xmldoc(\"config.xml\")"
param *.**.nic.phy80211p.maxTXPower 100mW
param *.**.nic.phy80211p.sensitivity -94dBm
param *.**.nic.phy80211p.thermalNoise -95dBm
param *.**.nic.phy80211p.usePropagationDelay true
param *.**.nic.phy80211p.useThermalNoise true
param *.annotations.draw false
param *.connectionManager.alpha 2.0
param *.connectionManager.carrierFrequency "5.890e9 Hz"
param *.connectionManager.pMax 100mW
param *.connectionManager.sat -94dBm
param *.connectionManager.sendDirect true
param *.manager.autoShutdown true
param *.manager.commandLine "\"sumo --remote-port $port --seed $seed --configuration-file $configFile\""
param *.manager.configFile "\"./sumocfg/freeway.sumo.cfg\""
param *.manager.host "\"localhost\""
param *.manager.margin 25
param *.manager.moduleDisplayString "\"\""
param *.manager.moduleName "\"node\""
param *.manager.moduleType "\"Car\""
param *.manager.updateInterval 0.01s
param *.node[*].appl.attackStart 30s
param *.node[*].appl.attackerType 4
param *.node[*].appl.simulationDuration "60 s"
param *.node[*].appl_type "\"SimplePlatooningApp\""
param *.node[*].helper.nCars 8
param *.node[*].helper.nLanes 1
param *.node[*].helper.platoonSize 8
param *.node[*].helper_type "\"PositionHelper\""
param *.node[*].mobility.x 0
param *.node[*].mobility.y 0
param *.node[*].mobility.z 1.895
param *.node[*].prot.attackStart 30s
param *.node[*].prot.attackerType 4
param *.node[*].prot.attackingNode 3
param *.node[*].prot.beaconingInterval 0.1s
param *.node[*].prot.fakeAcc "(4 == 4)"
param *.node[*].prot.fakePos "(4 == 2)"
param *.node[*].prot.fakeSpeed "(4 == 3)"
param *.node[*].prot.maliciousAcc "10 mpss"
param *.node[*].prot.maliciousSpeed 150kmph
param *.node[*].prot.packetSize 200
param *.node[*].prot.priority 2
param *.node[*].prot.shiftX "7 m"
param *.node[*].prot.useControllerAcceleration true
param *.node[*].protocol_type "\"SimplePlatooningBeaconing\""
param *.node[*].scenario.accHeadway 0.1s
param *.node[*].scenario.caccC1 0.5
param *.node[*].scenario.caccOmegaN "0.2 Hz"
param *.node[*].scenario.caccSpacing 5m
param *.node[*].scenario.caccXi 1
param *.node[*].scenario.controller "\"CACC\""
param *.node[*].scenario.engineTau "0.5 s"
param *.node[*].scenario.leaderHeadway 1.2s
param *.node[*].scenario.leaderOscillationFrequency "0.2 Hz"
param *.node[*].scenario.leaderSpeed 50kmph
param *.node[*].scenario.oscillationAmplitude "10 kmph"
param *.node[*].scenario.ploegH 0.5s
param *.node[*].scenario.ploegKd 0.7
param *.node[*].scenario.ploegKp 0.2
param *.node[*].scenario.startOscillating "5 s"
param *.node[*].scenario.useRealisticEngine false
param *.node[*].scenario_type "\"SinusoidalScenario\""
param *.node[*].unicast.packetLossRate 0
param *.obstacles.debug false
param *.playgroundSizeX 65000m
param *.playgroundSizeY 25000m
param *.playgroundSizeZ 50m
param *.world.use2D false
param *.world.useTorus false

vector 0  scenario.node[0].appl  distance  ETV
vector 1  scenario.node[0].appl  relativeSpeed  ETV
vector 2  scenario.node[0].appl  nodeId  ETV
vector 6  scenario.node[0].appl  acceleration  ETV
vector 7  scenario.node[0].appl  controllerAcceleration  ETV
vector 3  scenario.node[0].appl  speed  ETV
vector 4  scenario.node[0].appl  posx  ETV
vector 5  scenario.node[0].appl  posy  ETV
vector 22  scenario.node[1].appl  distance  ETV
vector 23  scenario.node[1].appl  relativeSpeed  ETV
vector 24  scenario.node[1].appl  nodeId  ETV
vector 28  scenario.node[1].appl  acceleration  ETV
vector 29  scenario.node[1].appl  controllerAcceleration  ETV
vector 25  scenario.node[1].appl  speed  ETV
vector 26  scenario.node[1].appl  posx  ETV
vector 27  scenario.node[1].appl  posy  ETV
vector 44  scenario.node[2].appl  distance  ETV
vector 45  scenario.node[2].appl  relativeSpeed  ETV
vector 46  scenario.node[2].appl  nodeId  ETV
vector 50  scenario.node[2].appl  acceleration  ETV
vector 51  scenario.node[2].appl  controllerAcceleration  ETV
vector 47  scenario.node[2].appl  speed  ETV
vector 48  scenario.node[2].appl  posx  ETV
vector 49  scenario.node[2].appl  posy  ETV
vector 66  scenario.node[3].appl  distance  ETV
vector 67  scenario.node[3].appl  relativeSpeed  ETV
vector 68  scenario.node[3].appl  nodeId  ETV
vector 72  scenario.node[3].appl  acceleration  ETV
vector 73  scenario.node[3].appl  controllerAcceleration  ETV
vector 69  scenario.node[3].appl  speed  ETV
vector 70  scenario.node[3].appl  posx  ETV
vector 71  scenario.node[3].appl  posy  ETV
vector 88  scenario.node[4].appl  distance  ETV
vector 89  scenario.node[4].appl  relativeSpeed  ETV
vector 90  scenario.node[4].appl  nodeId  ETV
vector 94  scenario.node[4].appl  acceleration  ETV
vector 95  scenario.node[4].appl  controllerAcceleration  ETV
vector 91  scenario.node[4].appl  speed  ETV
vector 92  scenario.node[4].appl  posx  ETV
vector 93  scenario.node[4].appl  posy  ETV
vector 110  scenario.node[5].appl  distance  ETV
vector 111  scenario.node[5].appl  relativeSpeed  ETV
vector 112  scenario.node[5].appl  nodeId  ETV
vector 116  scenario.node[5].appl  acceleration  ETV
vector 117  scenario.node[5].appl  controllerAcceleration  ETV
vector 113  scenario.node[5].appl  speed  ETV
vector 114  scenario.node[5].appl  posx  ETV
vector 115  scenario.node[5].appl  posy  ETV
vector 132  scenario.node[6].appl  distance  ETV
vector 133  scenario.node[6].appl  relativeSpeed  ETV
vector 134  scenario.node[6].appl  nodeId  ETV
vector 138  scenario.node[6].appl  acceleration  ETV
vector 139  scenario.node[6].appl  controllerAcceleration  ETV
vector 135  scenario.node[6].appl  speed  ETV
vector 136  scenario.node[6].appl  posx  ETV
vector 137  scenario.node[6].appl  posy  ETV
vector 154  scenario.node[7].appl  distance  ETV
vector 155  scenario.node[7].appl  relativeSpeed  ETV
vector 156  scenario.node[7].appl  nodeId  ETV
vector 160  scenario.node[7].appl  acceleration  ETV
vector 161  scenario.node[7].appl  controllerAcceleration  ETV
vector 157  scenario.node[7].appl  speed  ETV
vector 158  scenario.node[7].appl  posx  ETV
vector 159  scenario.node[7].appl  posy  ETV
vector 80  scenario.node[3].prot  frontDelay  ETV
vector 78  scenario.node[3].prot  frontDelayId  ETV
vector 58  scenario.node[2].prot  frontDelay  ETV
vector 56  scenario.node[2].prot  frontDelayId  ETV
vector 168  scenario.node[7].prot  frontDelay  ETV
vector 166  scenario.node[7].prot  frontDelayId  ETV
vector 35  scenario.node[1].prot  leaderDelay  ETV
vector 33  scenario.node[1].prot  leaderDelayId  ETV
vector 36  scenario.node[1].prot  frontDelay  ETV
vector 34  scenario.node[1].prot  frontDelayId  ETV
vector 57  scenario.node[2].prot  leaderDelay  ETV
vector 55  scenario.node[2].prot  leaderDelayId  ETV
vector 79  scenario.node[3].prot  leaderDelay  ETV
vector 77  scenario.node[3].prot  leaderDelayId  ETV
vector 101  scenario.node[4].prot  leaderDelay  ETV
vector 99  scenario.node[4].prot  leaderDelayId  ETV
vector 123  scenario.node[5].prot  leaderDelay  ETV
vector 121  scenario.node[5].prot  leaderDelayId  ETV
vector 145  scenario.node[6].prot  leaderDelay  ETV
vector 143  scenario.node[6].prot  leaderDelayId  ETV
vector 167  scenario.node[7].prot  leaderDelay  ETV
vector 165  scenario.node[7].prot  leaderDelayId  ETV
vector 124  scenario.node[5].prot  frontDelay  ETV
vector 122  scenario.node[5].prot  frontDelayId  ETV
vector 102  scenario.node[4].prot  frontDelay  ETV
vector 100  scenario.node[4].prot  frontDelayId  ETV
vector 146  scenario.node[6].prot  frontDelay  ETV
vector 144  scenario.node[6].prot  frontDelayId  ETV
vector 8  scenario.node[0].prot  nodeId  ETV
vector 9  scenario.node[0].prot  busyTime  ETV
vector 10  scenario.node[0].prot  collisions  ETV
vector 30  scenario.node[1].prot  nodeId  ETV
vector 31  scenario.node[1].prot  busyTime  ETV
vector 32  scenario.node[1].prot  collisions  ETV
vector 52  scenario.node[2].prot  nodeId  ETV
vector 53  scenario.node[2].prot  busyTime  ETV
vector 54  scenario.node[2].prot  collisions  ETV
vector 74  scenario.node[3].prot  nodeId  ETV
vector 75  scenario.node[3].prot  busyTime  ETV
vector 76  scenario.node[3].prot  collisions  ETV
vector 96  scenario.node[4].prot  nodeId  ETV
vector 97  scenario.node[4].prot  busyTime  ETV
vector 98  scenario.node[4].prot  collisions  ETV
vector 118  scenario.node[5].prot  nodeId  ETV
vector 119  scenario.node[5].prot  busyTime  ETV
vector 120  scenario.node[5].prot  collisions  ETV
vector 140  scenario.node[6].prot  nodeId  ETV
vector 141  scenario.node[6].prot  busyTime  ETV
vector 142  scenario.node[6].prot  collisions  ETV
vector 162  scenario.node[7].prot  nodeId  ETV
vector 163  scenario.node[7].prot  busyTime  ETV
vector 164  scenario.node[7].prot  collisions  ETV
7	11236 8159 232 190403 1.11 35.21 342 -1.5 1.5 -10.177972533923 543.85883084302
6	19395 10736 232 190403 1.11 35.21 342 -1.472274679513 1.4513407705126 -12.683102775651 366.49424988293
5	30131 6894 232 190403 1.11 35.21 342 36.55 36.55 12500.1 456878.655
4	37025 10280 232 190403 1.11 35.21 342 97.828754043446 575.37316526842 115548.5733169 45574878.288814
3	47305 10275 232 190403 1.11 35.21 342 12.59908680102 15.853603639796 4788.8869505482 67311.186692511
1	57580 5526 232 190403 1.11 35.21 342 0 0 0 0
0	63106 5868 232 190403 1.11 35.21 342 -1 -1 -342 342
2	68974 5526 232 190403 1.11 35.21 342 0 0 0 0
10	74500 483 5102 189146 2 35 34 0 0 0 0
9	74983 654 5102 189146 2 35 34 0.022969 0.02625 0.889219 0.023266637461
8	75637 449 5102 189146 2 35 34 0 0 0 0
29	76086 11007 233 190404 1.11 35.21 342 -1.5129716528829 1.512964842033 -11.903934037601 544.92036757446
28	87093 11067 233 190404 1.11 35.21 342 -1.4840815552393 1.4595456976263 -12.879899814492 368.84270901419
27	98160 7236 233 190404 1.11 35.21 342 36.55 36.55 12500.1 456878.655
26	105396 10618 233 190404 1.11 35.21 342 88.828754043579 566.45226999365 112469.6835731 43522715.480358
25	116014 10623 233 190404 1.11 35.21 342 12.594909075003 15.859715426624 4789.6718441455 67334.170192697
23	126637 11591 233 190404 1.11 35.21 342 -0.074693820605304 0.072861100851959 -0.65806256946305 0.96781424454568
22	138228 10618 233 190404 1.11 35.21 342 4.9147226200045 5.11131550734 1710.9054416711 8560.0045481773
24	148846 5868 233 190404 1.11 35.21 342 1 1 342 342
36	154714 13630 1032 190647 1.254911230853 35.254828999839 341 0.099907839697 0.100089841893 34.099929609568 3.4099864821942
35	168344 13630 1032 190647 1.254911230853 35.254828999839 341 0.099907839697 0.100089841893 34.099929609568 3.4099864821942
34	181974 9234 1032 190647 1.254911230853 35.254828999839 341 1 1 341 341
33	191208 9234 1032 190647 1.254911230853 35.254828999839 341 1 1 341 341
32	200442 483 5103 189147 2 35 34 0 0 0 0
31	200925 688 5103 189147 2 35 34 0.022969 0.02625 0.889219 0.023266637461
30	201613 483 5103 189147 2 35 34 1 1 34 34
51	202096 11016 234 190405 1.11 35.21 342 -1.4952754267034 1.4970992125241 -12.4793256158 529.55306749816
50	213112 11090 234 190405 1.11 35.21 342 -1.4761121290563 1.4494360546511 -12.869380966082 365.17128831535
49	224202 7236 234 190405 1.11 35.21 342 36.55 36.55 12500.1 456878.655
48	231438 10611 234 190405 1.11 35.21 342 79.828754043579 557.49760704715 109391.10981457 41526088.773306
47	242049 10620 234 190405 1.11 35.21 342 12.600718385035 15.854453942917 4790.1264787012 67343.841548968
45	252669 11604 234 190405 1.11 35.21 342 -0.042592453618237 0.039108605105241 -0.32583555761539 0.23094102828468
44	264273 10605 234 190405 1.11 35.21 342 4.9490553780142 5.0735113438961 1710.5828512179 8556.1555026176
46	274878 5868 234 190405 1.11 35.21 342 2 2 684 1368
58	280746 13622 900 190515 1.229657900624 35.229653678222 341 0.099998813386 0.100011845319 34.09999461818 3.4099989282603
57	294368 13624 1038 190653 1.254911260874 35.254829029708 341 0.099907839705 0.100089841908 34.099929609416 3.4099864821638
56	307992 9216 900 190515 1.229657900624 35.229653678222 341 2 2 682 1364
55	317208 9226 1038 190653 1.254911260874 35.254829029708 341 2 2 682 1364
54	326434 483 5104 189148 2 35 34 0 0 0 0
53	326917 688 5104 189148 2 35 34 0.022969 0.02625 0.889219 0.023266637461
52	327605 483 5104 189148 2 35 34 2 2 68 136
73	328088 11009 235 190406 1.11 35.21 342 -1.4890877726286 1.4891492922908 -12.656485195698 514.84064103653
72	339097 11088 235 190406 1.11 35.21 342 -1.4634887733029 1.4362599129383 -12.764696942105 358.56632773952
71	350185 7236 235 190406 1.11 35.21 342 36.55 36.55 12500.1 456878.655
70	357421 10620 235 190406 1.11 35.21 342 70.828754043579 548.52151187828 106312.44125394 39584799.949666
69	368041 10618 235 190406 1.11 35.21 342 12.613692769581 15.841159355063 4790.3696283581 67346.043323603
67	378659 11715 235 190406 1.11 35.21 342 -0.022067713649763 0.020412768889207 -0.11445584721742 0.043411540566167
66	390374 10579 235 190406 1.11 35.21 342 4.970444737773 5.0493611819021 1710.6734236281 8556.8520639788
68	400953 5868 235 190406 1.11 35.21 342 3 3 1026 3078
80	406821 13640 832 190447 1.213904870603 35.213900648424 341 0.099998813387 0.10001184451 34.099994618403 3.4099989283047
79	420461 13637 1044 190659 1.254911290894 35.254829059647 341 0.099907839706 0.100089841918 34.099929609335 3.4099864821476
78	434098 9225 832 190447 1.213904870603 35.213900648424 341 3 3 1023 3069
77	443323 9226 1044 190659 1.254911290894 35.254829059647 341 3 3 1023 3069
76	452549 483 5105 189149 2 35 34 0 0 0 0
75	453032 688 5105 189149 2 35 34 0.022968 0.02625 0.889218 0.023266591524
74	453720 483 5105 189149 2 35 34 3 3 102 306
117	454203 11367 237 190408 1.11 35.21 342 -1.4896672653972 1.8821992750872 15.939325041952 480.48717026645
116	465570 11425 237 190408 1.11 35.21 342 -1.4475619112307 1.4387948455497 11.148729190564 322.00913130093
115	476995 7578 237 190408 1.11 35.21 342 36.55 36.55 12500.1 456878.655
114	484573 10964 237 190408 1.11 35.21 342 52.82875213623 532.83724126944 100164.69593505 35878610.736348
113	495537 10959 237 190408 1.11 35.21 342 12.623763716835 15.819725054065 4814.3567187206 68019.240096178
111	506496 11874 237 190408 1.11 35.21 342 -0.20117115258451 1.7744353800955 24.30328099724 36.994416512661
110	518370 10960 237 190408 1.11 35.21 342 4.723999286353 7.3611597053324 1725.3728361553 8734.1559373483
112	529330 6210 237 190408 1.11 35.21 342 5 5 1710 8550
124	535540 13965 1172 190787 1.26574753106 35.265756320501 341 0.099998814021 0.100011845868 34.100007630023 3.4100015307672
123	549505 13957 1056 190671 1.254911350936 35.254829111647 341 0.099907839698 0.100089841915 34.099929601293 3.4099864805392
122	563462 9570 1172 190787 1.26574753106 35.265756320501 341 5 5 1705 8525
121	573032 9560 1056 190671 1.254911350936 35.254829111647 341 5 5 1705 8525
120	582592 517 5107 189151 2 35 34 0 0 0 0
119	583109 722 5107 189151 2 35 34 0.022968 0.02625 0.889218 0.023266591524
118	583831 517 5107 189151 2 35 34 5 5 170 850
139	584348 11348 238 190409 1.11 35.21 342 -1.4807582969135 1.8215353043804 3.4557230931829 480.24845956342
138	595696 11404 238 190409 1.11 35.21 342 -1.4503739142492 1.4264948351428 0.53138027029593 331.44922365164
137	607100 7578 238 190409 1.11 35.21 342 36.55 36.55 12500.1 456878.655
136	614678 10968 238 190409 1.11 35.21 342 43.82875213623 522.65409304745 97079.818157314 34096464.607602
135	625646 10963 238 190409 1.11 35.21 342 12.619374503751 15.824878121944 4802.1564082369 67663.840932995
133	636609 11920 238 190409 1.11 35.21 342 -0.10823862116099 1.0398404438144 12.088823191709 10.317143976375
132	648529 10945 238 190409 1.11 35.21 342 4.8521076826686 6.1621883252259 1716.6337715299 8622.9381182309
134	659474 6210 238 190409 1.11 35.21 342 6 6 2052 12312
146	665684 13942 1312 190365 1.305157621123 35.205154570078 340 0.099998814512 0.100011845769 33.999995789537 3.3999991625304
145	679626 13968 1062 190677 1.254911380957 35.254829145755 341 0.099907839699 0.100089841913 34.09992960538 3.4099864813566
144	693594 9552 1312 190365 1.305157621123 35.205154570078 340 6 6 2040 12240
143	703146 9568 1062 190677 1.254911380957 35.254829145755 341 6 6 2046 12276
142	712714 517 5108 189152 2 35 34 0 0 0 0
141	713231 722 5108 189152 2 35 34 0.022969 0.02625 0.889219 0.023266637461
140	713953 517 5108 189152 2 35 34 6 6 204 1224
161	714470 11330 239 190410 1.11 35.21 342 -1.4938774158628 1.7342379921726 -3.2673043662464 506.80168331093
160	725800 11428 239 190410 1.11 35.21 342 -1.4564665653559 1.4312228046956 -5.532083758777 341.47083533916
159	737228 7578 239 190410 1.11 35.21 342 36.55 36.55 12500.1 456878.655
158	744806 10961 239 190410 1.11 35.21 342 34.82875213623 513.07464132087 93998.502117678 32373725.602381
157	755767 10961 239 190410 1.11 35.21 342 12.61743420846 15.830302319143 4796.1507207644 67497.832828765
155	766728 12107 239 190410 1.11 35.21 342 -0.044581841626897 0.59206307863485 6.0003736698852 2.7556029022956
154	778835 10959 239 190410 1.11 35.21 342 4.9351111939352 5.5674959701709 1713.1959258869 8583.4321663831
156	789794 6210 239 190410 1.11 35.21 342 7 7 2394 16758
168	796004 13958 975 190584 1.254433050728 35.254428826438 341 0.099998813152 0.100011844947 34.099994616292 3.4099989278826
167	809962 13966 1068 190683 1.254911410977 35.25482917779 341 0.099907839704 0.10008984192 34.099929607395 3.4099864817596
166	823928 9570 975 190584 1.254433050728 35.254428826438 341 7 7 2387 16709
165	833498 9562 1068 190683 1.254911410977 35.25482917779 341 7 7 2387 16709
164	843060 517 5109 189153 2 35 34 0 0 0 0
163	843577 722 5109 189153 2 35 34 0.022969 0.02625 0.889219 0.023266637461
162	844299 517 5109 189153 2 35 34 7 7 238 1666
88	844816 10613 236 190821 1.11 35.28 343 0 5.5742379936473 1686.8522245344 8424.0592950992
89	855429 11701 236 190821 1.11 35.28 343 -4.2071463660704 0.35251537958818 -52.659487916261 176.16889707887
90	867130 5886 236 190821 1.11 35.28 343 4 4 1372 5488
91	873016 10646 236 190821 1.11 35.28 343 12.599786642942 16.81267909316 4855.7622959709 69082.222578417
92	883662 10658 236 190821 1.11 35.28 343 61.828754043579 545.40961085278 103803.97024002 38023577.513341
93	894320 7258 236 190821 1.11 35.28 343 36.55 36.55 12536.65 458214.5575
94	901578 11082 236 190821 1.11 35.28 343 -1.4527428031657 1.5763255276418 29.942469683122 338.35328743166
95	912660 11015 236 190821 1.11 35.28 343 -1.4821537219925 1.7832279196527 34.230605605174 472.52993156389
96	923675 483 5106 189150 2 35 34 4 4 136 544
97	924158 688 5106 189150 2 35 34 0.022969 0.02625 0.889219 0.023266637461
98	924846 483 5106 189150 2 35 34 0 0 0 0
99	925329 9234 1050 190665 1.254911320915 35.254829073393 341 4 4 1364 5456
100	934563 9545 1246 190299 1.303561561081 35.20355849819 340 4 4 1360 5440
101	944108 13979 1050 190665 1.254911320915 35.254829073393 341 0.099907839704 0.100089841921 34.09992959306 3.4099864788927
102	958087 13938 1246 190299 1.303561561081 35.20355849819 340 0.099998813574 0.100011845068 33.999995777691 3.3999991601609
