file 893992 1512143334                                          
version 2
run SinusoidalAccInjectionAttack-84-20171201-16:48:37-67258
attr CACCSpacing 5
attr attackAcc -10
attr attackPos 7
attr attackSpeed 150
attr attackStart 30
attr attacker 4
attr beaconInterval 0.1
attr configname SinusoidalAccInjectionAttack
attr controller 1
attr datetime 20171201-16:48:37
attr experiment SinusoidalAccInjectionAttack
attr fakeAcc "(4 == 4)"
attr fakePos "(4 == 2)"
attr fakeSpeed "(4 == 3)"
attr inifile omnetpp_84.ini
attr iterationvars "$attacker=4, $attackSpeed=150, $attackPos=7, $attackAcc=-10, $leaderSpeed=100, $controller=1, $CACCSpacing=5, $sController=\"CACC\", $attackStart=30, $0=5, $1=0, $nCars=8, $platoonSize=8, $nLanes=1, $beaconInterval=0.1, $priority=2, $packetSize=200, $ploegH=0.5, $leaderHeadway=1.2, $fakeSpeed=(4 == 3), $fakeAcc=(4 == 4), $fakePos=(4 == 2)"
attr iterationvarsf attacker=4,attackSpeed=150,attackPos=7,attackAcc=-10,leaderSpeed=100,controller=1,CACCSpacing=5,sController=CACC,attackStart=30,5,0,nCars=8,platoonSize=8,nLanes=1,beaconInterval=0.1,priority=2,packetSize=200,ploegH=0.5,leaderHeadway=1.2,fakeSpeed=(4_==_3),fakeAcc=(4_==_4),fakePos=(4_==_2)-
attr leaderHeadway 1.2
attr leaderSpeed 100
attr measurement "$attacker=4, $attackSpeed=150, $attackPos=7, $attackAcc=-10, $leaderSpeed=100, $controller=1, $CACCSpacing=5, $sController=\"CACC\", $attackStart=30, $0=5, $1=0, $nCars=8, $platoonSize=8, $nLanes=1, $beaconInterval=0.1, $priority=2, $packetSize=200, $ploegH=0.5, $leaderHeadway=1.2, $fakeSpeed=(4 == 3), $fakeAcc=(4 == 4), $fakePos=(4 == 2)"
attr nCars 8
attr nLanes 1
attr network scenario
attr packetSize 200
attr platoonSize 8
attr ploegH 0.5
attr priority 2
attr processid 67258
attr repetition 4
attr replication #4
attr resultdir results
attr runnumber 84
attr sController "\"CACC\""
attr seedset 4
param **.coreDebug false
param **.debug false
param **.headway 0.1s
param **.numberOfCars 8
param **.numberOfCarsPerPlatoon 8
param **.numberOfLanes 1
param **.numericController 1
param **.traffic.nCars 8
param **.traffic.nLanes 1
param **.traffic.platoonInsertDistance 5m
param **.traffic.platoonInsertHeadway 0s
param **.traffic.platoonInsertSpeed 100kmph
param **.traffic.platoonInsertTime "1 s"
param **.traffic.platoonLeaderHeadway 1.2s
param **.traffic.platoonSize 8
param **.traffic.platooningVType "\"vtypeauto\""
param **.traffic_type "\"PlatoonsTrafficManager\""
param *.**.nic.mac1609_4.bitrate 6Mbps
param *.**.nic.mac1609_4.txPower 100mW
param *.**.nic.mac1609_4.useServiceChannel false
param *.**.nic.phy80211p.analogueModels "xmldoc(\"config.xml\")"
param *.**.nic.phy80211p.decider "xmldoc(\"config.xml\")"
param *.**.nic.phy80211p.maxTXPower 100mW
param *.**.nic.phy80211p.sensitivity -94dBm
param *.**.nic.phy80211p.thermalNoise -95dBm
param *.**.nic.phy80211p.usePropagationDelay true
param *.**.nic.phy80211p.useThermalNoise true
param *.annotations.draw false
param *.connectionManager.alpha 2.0
param *.connectionManager.carrierFrequency "5.890e9 Hz"
param *.connectionManager.pMax 100mW
param *.connectionManager.sat -94dBm
param *.connectionManager.sendDirect true
param *.manager.autoShutdown true
param *.manager.commandLine "\"sumo --remote-port $port --seed $seed --configuration-file $configFile\""
param *.manager.configFile "\"./sumocfg/freeway.sumo.cfg\""
param *.manager.host "\"localhost\""
param *.manager.margin 25
param *.manager.moduleDisplayString "\"\""
param *.manager.moduleName "\"node\""
param *.manager.moduleType "\"Car\""
param *.manager.updateInterval 0.01s
param *.node[*].appl.attackStart 30s
param *.node[*].appl.attackerType 4
param *.node[*].appl.simulationDuration "60 s"
param *.node[*].appl_type "\"SimplePlatooningApp\""
param *.node[*].helper.nCars 8
param *.node[*].helper.nLanes 1
param *.node[*].helper.platoonSize 8
param *.node[*].helper_type "\"PositionHelper\""
param *.node[*].mobility.x 0
param *.node[*].mobility.y 0
param *.node[*].mobility.z 1.895
param *.node[*].prot.attackStart 30s
param *.node[*].prot.attackerType 4
param *.node[*].prot.attackingNode 3
param *.node[*].prot.beaconingInterval 0.1s
param *.node[*].prot.fakeAcc "(4 == 4)"
param *.node[*].prot.fakePos "(4 == 2)"
param *.node[*].prot.fakeSpeed "(4 == 3)"
param *.node[*].prot.maliciousAcc "-10 mpss"
param *.node[*].prot.maliciousSpeed 150kmph
param *.node[*].prot.packetSize 200
param *.node[*].prot.priority 2
param *.node[*].prot.shiftX "7 m"
param *.node[*].prot.useControllerAcceleration true
param *.node[*].protocol_type "\"SimplePlatooningBeaconing\""
param *.node[*].scenario.accHeadway 0.1s
param *.node[*].scenario.caccC1 0.5
param *.node[*].scenario.caccOmegaN "0.2 Hz"
param *.node[*].scenario.caccSpacing 5m
param *.node[*].scenario.caccXi 1
param *.node[*].scenario.controller "\"CACC\""
param *.node[*].scenario.engineTau "0.5 s"
param *.node[*].scenario.leaderHeadway 1.2s
param *.node[*].scenario.leaderSpeed 100kmph
param *.node[*].scenario.ploegH 0.5s
param *.node[*].scenario.ploegKd 0.7
param *.node[*].scenario.ploegKp 0.2
param *.node[*].scenario.useRealisticEngine false
param *.node[*].scenario_type "\"SinusoidalScenario\""
param *.node[*].unicast.packetLossRate 0
param *.obstacles.debug false
param *.playgroundSizeX 65000m
param *.playgroundSizeY 25000m
param *.playgroundSizeZ 50m
param *.world.use2D false
param *.world.useTorus false

vector 0  scenario.node[0].appl  distance  ETV
vector 1  scenario.node[0].appl  relativeSpeed  ETV
vector 2  scenario.node[0].appl  nodeId  ETV
vector 6  scenario.node[0].appl  acceleration  ETV
vector 7  scenario.node[0].appl  controllerAcceleration  ETV
vector 3  scenario.node[0].appl  speed  ETV
vector 4  scenario.node[0].appl  posx  ETV
vector 5  scenario.node[0].appl  posy  ETV
vector 22  scenario.node[1].appl  distance  ETV
vector 23  scenario.node[1].appl  relativeSpeed  ETV
vector 24  scenario.node[1].appl  nodeId  ETV
vector 28  scenario.node[1].appl  acceleration  ETV
vector 29  scenario.node[1].appl  controllerAcceleration  ETV
vector 25  scenario.node[1].appl  speed  ETV
vector 26  scenario.node[1].appl  posx  ETV
vector 27  scenario.node[1].appl  posy  ETV
vector 44  scenario.node[2].appl  distance  ETV
vector 45  scenario.node[2].appl  relativeSpeed  ETV
vector 46  scenario.node[2].appl  nodeId  ETV
vector 50  scenario.node[2].appl  acceleration  ETV
vector 51  scenario.node[2].appl  controllerAcceleration  ETV
vector 47  scenario.node[2].appl  speed  ETV
vector 48  scenario.node[2].appl  posx  ETV
vector 49  scenario.node[2].appl  posy  ETV
vector 66  scenario.node[3].appl  distance  ETV
vector 67  scenario.node[3].appl  relativeSpeed  ETV
vector 68  scenario.node[3].appl  nodeId  ETV
vector 72  scenario.node[3].appl  acceleration  ETV
vector 73  scenario.node[3].appl  controllerAcceleration  ETV
vector 69  scenario.node[3].appl  speed  ETV
vector 70  scenario.node[3].appl  posx  ETV
vector 71  scenario.node[3].appl  posy  ETV
vector 88  scenario.node[4].appl  distance  ETV
vector 89  scenario.node[4].appl  relativeSpeed  ETV
vector 90  scenario.node[4].appl  nodeId  ETV
vector 94  scenario.node[4].appl  acceleration  ETV
vector 95  scenario.node[4].appl  controllerAcceleration  ETV
vector 91  scenario.node[4].appl  speed  ETV
vector 92  scenario.node[4].appl  posx  ETV
vector 93  scenario.node[4].appl  posy  ETV
vector 110  scenario.node[5].appl  distance  ETV
vector 111  scenario.node[5].appl  relativeSpeed  ETV
vector 112  scenario.node[5].appl  nodeId  ETV
vector 116  scenario.node[5].appl  acceleration  ETV
vector 117  scenario.node[5].appl  controllerAcceleration  ETV
vector 113  scenario.node[5].appl  speed  ETV
vector 114  scenario.node[5].appl  posx  ETV
vector 115  scenario.node[5].appl  posy  ETV
vector 132  scenario.node[6].appl  distance  ETV
vector 133  scenario.node[6].appl  relativeSpeed  ETV
vector 134  scenario.node[6].appl  nodeId  ETV
vector 138  scenario.node[6].appl  acceleration  ETV
vector 139  scenario.node[6].appl  controllerAcceleration  ETV
vector 135  scenario.node[6].appl  speed  ETV
vector 136  scenario.node[6].appl  posx  ETV
vector 137  scenario.node[6].appl  posy  ETV
vector 154  scenario.node[7].appl  distance  ETV
vector 155  scenario.node[7].appl  relativeSpeed  ETV
vector 156  scenario.node[7].appl  nodeId  ETV
vector 160  scenario.node[7].appl  acceleration  ETV
vector 161  scenario.node[7].appl  controllerAcceleration  ETV
vector 157  scenario.node[7].appl  speed  ETV
vector 158  scenario.node[7].appl  posx  ETV
vector 159  scenario.node[7].appl  posy  ETV
vector 102  scenario.node[4].prot  frontDelay  ETV
vector 100  scenario.node[4].prot  frontDelayId  ETV
vector 35  scenario.node[1].prot  leaderDelay  ETV
vector 33  scenario.node[1].prot  leaderDelayId  ETV
vector 36  scenario.node[1].prot  frontDelay  ETV
vector 34  scenario.node[1].prot  frontDelayId  ETV
vector 57  scenario.node[2].prot  leaderDelay  ETV
vector 55  scenario.node[2].prot  leaderDelayId  ETV
vector 79  scenario.node[3].prot  leaderDelay  ETV
vector 77  scenario.node[3].prot  leaderDelayId  ETV
vector 101  scenario.node[4].prot  leaderDelay  ETV
vector 99  scenario.node[4].prot  leaderDelayId  ETV
vector 123  scenario.node[5].prot  leaderDelay  ETV
vector 121  scenario.node[5].prot  leaderDelayId  ETV
vector 145  scenario.node[6].prot  leaderDelay  ETV
vector 143  scenario.node[6].prot  leaderDelayId  ETV
vector 167  scenario.node[7].prot  leaderDelay  ETV
vector 165  scenario.node[7].prot  leaderDelayId  ETV
vector 80  scenario.node[3].prot  frontDelay  ETV
vector 78  scenario.node[3].prot  frontDelayId  ETV
vector 146  scenario.node[6].prot  frontDelay  ETV
vector 144  scenario.node[6].prot  frontDelayId  ETV
vector 58  scenario.node[2].prot  frontDelay  ETV
vector 56  scenario.node[2].prot  frontDelayId  ETV
vector 124  scenario.node[5].prot  frontDelay  ETV
vector 122  scenario.node[5].prot  frontDelayId  ETV
vector 168  scenario.node[7].prot  frontDelay  ETV
vector 166  scenario.node[7].prot  frontDelayId  ETV
vector 8  scenario.node[0].prot  nodeId  ETV
vector 9  scenario.node[0].prot  busyTime  ETV
vector 10  scenario.node[0].prot  collisions  ETV
vector 30  scenario.node[1].prot  nodeId  ETV
vector 31  scenario.node[1].prot  busyTime  ETV
vector 32  scenario.node[1].prot  collisions  ETV
vector 52  scenario.node[2].prot  nodeId  ETV
vector 53  scenario.node[2].prot  busyTime  ETV
vector 54  scenario.node[2].prot  collisions  ETV
vector 74  scenario.node[3].prot  nodeId  ETV
vector 75  scenario.node[3].prot  busyTime  ETV
vector 76  scenario.node[3].prot  collisions  ETV
vector 96  scenario.node[4].prot  nodeId  ETV
vector 97  scenario.node[4].prot  busyTime  ETV
vector 98  scenario.node[4].prot  collisions  ETV
vector 118  scenario.node[5].prot  nodeId  ETV
vector 119  scenario.node[5].prot  busyTime  ETV
vector 120  scenario.node[5].prot  collisions  ETV
vector 140  scenario.node[6].prot  nodeId  ETV
vector 141  scenario.node[6].prot  busyTime  ETV
vector 142  scenario.node[6].prot  collisions  ETV
vector 162  scenario.node[7].prot  nodeId  ETV
vector 163  scenario.node[7].prot  busyTime  ETV
vector 164  scenario.node[7].prot  collisions  ETV
7	11079 7532 232 175340 1.11 32.51 315 -1.5 1.5 13.746018686734 493.80984025099
6	18611 9877 232 175340 1.11 32.51 315 -1.4722746794938 1.451340770512 12.847976342246 335.54193352307
5	28488 6327 232 175340 1.11 32.51 315 36.55 36.55 11513.25 420809.2875
4	34815 9449 232 175340 1.11 32.51 315 112.05297775242 988.08004010723 173651.75216288 116002296.25012
3	44264 9443 232 175340 1.11 32.51 315 26.488037261118 29.742492528104 8788.4962102338 245430.48213431
1	53707 5067 232 175340 1.11 32.51 315 0 0 0 0
0	58774 5382 232 175340 1.11 32.51 315 -1 -1 -315 315
2	64156 5067 232 175340 1.11 32.51 315 0 0 0 0
10	69223 439 5234 172544 2 32 31 0 0 0 0
9	69662 595 5234 172544 2 32 31 0.023625 0.02625 0.811125 0.021230015625
8	70257 408 5234 172544 2 32 31 0 0 0 0
29	70665 10134 233 175341 1.11 32.51 315 -1.5034793944864 1.5024511423159 14.612951426404 490.44339962832
28	80799 10177 233 175341 1.11 32.51 315 -1.4807765622834 1.4557932513856 12.714467561063 336.22669823066
27	90976 6642 233 175341 1.11 32.51 315 36.55 36.55 11513.25 420809.2875
26	97618 9763 233 175341 1.11 32.51 315 103.05297775269 979.01469508417 170817.49118286 112903787.338
25	107381 9750 233 175341 1.11 32.51 315 26.48728580314 29.749129636533 8787.8369663569 245394.06496082
23	117131 10655 233 175341 1.11 32.51 315 -0.064317867355772 0.062036137231836 0.53076411353035 0.6108787867849
22	127786 9764 233 175341 1.11 32.51 315 4.9162243514724 5.0934695529853 1574.2477951435 7868.1313507514
24	137550 5382 233 175341 1.11 32.51 315 1 1 315 315
36	142932 12525 964 175516 1.241822900623 32.541819935628 314 0.099998658966 0.10001168513 31.399995695462 3.1399991439492
35	155457 12525 964 175516 1.241822900623 32.541819935628 314 0.099998658966 0.10001168513 31.399995695462 3.1399991439492
34	167982 8476 964 175516 1.241822900623 32.541819935628 314 1 1 314 314
33	176458 8476 964 175516 1.241822900623 32.541819935628 314 1 1 314 314
32	184934 439 5235 172545 2 32 31 0 0 0 0
31	185373 626 5235 172545 2 32 31 0.023625 0.02625 0.811125 0.021230015625
30	185999 439 5235 172545 2 32 31 1 1 31 31
51	186438 10129 234 175342 1.11 32.51 315 -1.5169291874388 1.5151528893525 14.711907761014 495.59299820698
50	196567 10179 234 175342 1.11 32.51 315 -1.474469214601 1.4486483627909 12.594772052637 333.94329036319
49	206746 6642 234 175342 1.11 32.51 315 36.55 36.55 11513.25 420809.2875
48	213388 9751 234 175342 1.11 32.51 315 94.052977752686 969.99375076698 167982.77726564 109855666.06578
47	223139 9760 234 175342 1.11 32.51 315 26.489807071192 29.742477783569 8787.6229555609 245380.40579941
45	232899 10767 234 175342 1.11 32.51 315 -0.018683341755075 0.016164858544286 0.086866120372836 0.03265912195463
44	243666 9732 234 175342 1.11 32.51 315 4.9677844757052 5.0430601385272 1574.7096370029 7872.1985716782
46	253398 5382 234 175342 1.11 32.51 315 2 2 630 1260
58	258780 12502 1176 175165 1.28193217081 32.481930535713 313 0.099998658959 0.100011678371 31.29999702536 3.1299994099268
57	271282 12524 970 175522 1.241822930644 32.54181996572 314 0.099998658967 0.100011685139 31.399995695533 3.1399991439634
56	283806 8460 1176 175165 1.28193217081 32.481930535713 313 2 2 626 1252
55	292266 8470 970 175522 1.241822930644 32.54181996572 314 2 2 628 1256
54	300736 439 5236 172546 2 32 31 0 0 0 0
53	301175 626 5236 172546 2 32 31 0.023625 0.02625 0.811125 0.021230015625
52	301801 439 5236 172546 2 32 31 2 2 62 124
73	302240 10127 235 175343 1.11 32.51 315 -1.4985212089264 1.4980940713731 14.755137622409 483.33332131214
72	312367 10197 235 175343 1.11 32.51 315 -1.4637937971386 1.4376572545228 12.433333969052 328.68451654308
71	322564 6642 235 175343 1.11 32.51 315 36.55 36.55 11513.25 420809.2875
70	329206 9761 235 175343 1.11 32.51 315 85.052977752686 960.98330574977 165147.96640778 106858652.34884
69	338967 9756 235 175343 1.11 32.51 315 26.49929006903 29.732223328141 8787.5125836453 245370.74657616
67	348723 10850 235 175343 1.11 32.51 315 -0.015548587425442 0.013757099034954 -0.015575804888627 0.017035765514614
66	359573 9754 235 175343 1.11 32.51 315 4.9738525305578 5.0387417848268 1574.8086504282 7873.1578911392
68	369327 5382 235 175343 1.11 32.51 315 3 3 945 2835
80	374709 12526 1040 175586 1.262749960665 32.562759995778 314 0.099998658965 0.100011699787 31.40000869557 3.1400017441055
79	387235 12531 976 175528 1.241822960664 32.541819995777 314 0.099998658964 0.100011685147 31.39999569557 3.1399991439708
78	399766 8474 1040 175586 1.262749960665 32.562759995778 314 3 3 942 2826
77	408240 8475 976 175528 1.241822960664 32.541819995777 314 3 3 942 2826
76	416715 439 5237 172547 2 32 31 0 0 0 0
75	417154 626 5237 172547 2 32 31 0.023625 0.02625 0.811125 0.021230015625
74	417780 439 5237 172547 2 32 31 3 3 93 279
95	418219 10130 236 175344 1.11 32.51 315 -4.356832553558 1.492297991817 -81.350142454271 633.46388722064
94	428349 10201 236 175344 1.11 32.51 315 -3.1547874015644 1.4336101310143 -72.912394280797 452.62731084628
93	438550 6642 236 175344 1.11 32.51 315 36.55 36.55 11513.25 420809.2875
92	445192 9757 236 175344 1.11 32.51 315 76.052977752686 941.94120012896 162232.08412525 103761454.04983
91	454949 9757 236 175344 1.11 32.51 315 20.568839617829 29.729614576829 8684.1218386277 240172.89282978
89	464706 10601 236 175344 1.11 32.51 315 -0.026253898722555 8.4228788281388 103.26641167786 618.31580012194
88	475307 9740 236 175344 1.11 32.51 315 4.9580811516836 14.873532242234 1653.8144676314 9153.6917447327
90	485047 5382 236 175344 1.11 32.51 315 4 4 1260 5040
102	490429 12840 904 175462 1.240525810561 32.540535879368 314 0.099998658953 0.100011698418 31.400008729264 3.1400017508442
101	503269 12863 982 175534 1.241822990685 32.541820060146 314 0.099998658966 0.100011687461 31.399995729918 3.1399991508404
100	516132 8790 904 175462 1.240525810561 32.540535879368 314 4 4 1256 5024
99	524922 8482 982 175534 1.241822990685 32.541820060146 314 4 4 1256 5024
98	533404 439 5238 172548 2 32 31 0 0 0 0
97	533843 626 5238 172548 2 32 31 0.023625 0.02625 0.811125 0.021230015625
96	534469 439 5238 172548 2 32 31 4 4 124 496
139	534908 10478 238 175346 1.11 32.51 315 -1.9199635014735 1.4892820935974 -19.313103222862 438.48413100353
138	545386 10543 238 175346 1.11 32.51 315 -1.4484613577004 1.423468459711 -14.804117669393 293.28794894643
137	555929 6957 238 175346 1.11 32.51 315 36.55 36.55 11513.25 420809.2875
136	562886 10079 238 175346 1.11 32.51 315 58.052977752686 931.33904294022 156623.34371886 98136388.831299
135	572965 10076 238 175346 1.11 32.51 315 26.334607851275 29.713351898307 8760.127111495 243869.06252416
133	583041 10973 238 175346 1.11 32.51 315 -2.1266141829947 0.019374224362203 -26.583518201213 40.67639878053
132	594014 10044 238 175346 1.11 32.51 315 2.423300474748 5.0150693530404 1554.3821100981 7702.9482040966
134	604058 5697 238 175346 1.11 32.51 315 6 6 1890 11340
146	609755 12846 1106 175658 1.266712050727 32.566709095115 314 0.099998658961 0.100011685812 31.399995704845 3.1399991458258
145	622601 12839 994 175546 1.241823050727 32.541820094931 314 0.099998658961 0.100011685801 31.399995704661 3.139999145789
144	635440 8797 1106 175658 1.266712050727 32.566709095115 314 6 6 1884 11304
143	644237 8791 994 175546 1.241823050727 32.541820094931 314 6 6 1884 11304
142	653028 470 5240 172550 2 32 31 0 0 0 0
141	653498 657 5240 172550 2 32 31 0.023625 0.02625 0.811125 0.021230015625
140	654155 470 5240 172550 2 32 31 6 6 186 1116
161	654625 10463 239 175347 1.11 32.51 315 -1.6624207371275 1.4966188714923 -5.1550090300019 452.73863842897
160	665088 10512 239 175347 1.11 32.51 315 -1.451779337739 1.4279262018306 -2.6754214140976 300.85231234477
159	675600 6957 239 175347 1.11 32.51 315 36.55 36.55 11513.25 420809.2875
158	682557 10077 239 175347 1.11 32.51 315 49.052977752686 923.60993970008 153797.46307137 95359483.536055
157	692634 10074 239 175347 1.11 32.51 315 26.505903352053 29.717729568461 8773.256804257 244576.08162491
155	702708 10939 239 175347 1.11 32.51 315 -1.1833584801528 0.034536355439467 -12.981651585304 10.941292635669
154	713647 10057 239 175347 1.11 32.51 315 3.7529193989649 5.0229359302052 1566.1432413473 7793.689931242
156	723704 5697 239 175347 1.11 32.51 315 7 7 2205 15435
168	729401 12800 1308 175303 1.289466320914 32.489464690285 313 0.099998658955 0.100011678653 31.299997029828 3.1299994108204
167	742201 12834 1000 175552 1.241823080747 32.541820120592 314 0.099998658962 0.100011685494 31.399995700302 3.1399991449172
166	755035 8757 1308 175303 1.289466320914 32.489464690285 313 7 7 2191 15337
165	763792 8786 1000 175552 1.241823080747 32.541820120592 314 7 7 2198 15386
164	772578 470 5241 172551 2 32 31 0 0 0 0
163	773048 657 5241 172551 2 32 31 0.023625 0.02625 0.811125 0.021230015625
162	773705 470 5241 172551 2 32 31 7 7 217 1519
110	774175 10079 237 175692 1.11 32.58 316 0 5.0290410940187 1535.8784017419 7601.8815162392
111	784254 10975 237 175692 1.11 32.58 316 -3.6401355339463 0.035220619226141 -51.968573973251 143.99639415575
112	795229 5716 237 175692 1.11 32.58 316 5 5 1580 7900
113	800945 10108 237 175692 1.11 32.58 316 24.100814183065 29.721801247807 8757.2802151929 243067.11563172
114	811053 10108 237 175692 1.11 32.58 316 67.052977752686 939.40854361338 160376.59541837 101823759.69286
115	821161 6980 237 175692 1.11 32.58 316 36.55 36.55 11549.8 422145.19
116	828141 10552 237 175692 1.11 32.58 316 -1.453940271638 1.4285447656441 -37.833931097763 320.95155811127
117	838693 10506 237 175692 1.11 32.58 316 -2.2514809315158 1.4988827604699 -46.476226355055 480.02862276414
118	849199 470 5239 172549 2 32 31 5 5 155 775
119	849669 657 5239 172549 2 32 31 0.023625 0.02625 0.811125 0.021230015625
120	850326 470 5239 172549 2 32 31 0 0 0 0
121	850796 8797 988 175540 1.241823020706 32.541820073864 314 5 5 1570 7850
122	859593 8756 1242 175231 1.287402260872 32.487400642887 313 5 5 1565 7825
123	868349 12848 988 175540 1.241823020706 32.541820073864 314 0.099998658963 0.100011686396 31.399995713615 3.1399991475798
124	881197 12795 1242 175231 1.287402260872 32.487400642887 313 0.099998658956 0.100011696369 31.300010042472 3.130002013484
