version 2
run SinusoidalAccInjectionAttack-163-20170802-20:44:05-108316
attr CACCSpacing 5
attr attackAcc 0
attr attackPos 7
attr attackSpeed 150
attr attackStart 30
attr attacker 4
attr beaconInterval 0.1
attr configname SinusoidalAccInjectionAttack
attr controller 1
attr datetime 20170802-20:44:05
attr experiment SinusoidalAccInjectionAttack
attr fakeAcc "(4 == 4)"
attr fakePos "(4 == 2)"
attr fakeSpeed "(4 == 3)"
attr inifile omnetpp_163.ini
attr iterationvars "$attacker=4, $attackSpeed=150, $attackPos=7, $attackAcc=0, $leaderSpeed=150, $controller=1, $CACCSpacing=5, $sController=\"CACC\", $attackStart=30, $0=5, $1=0, $nCars=8, $platoonSize=8, $nLanes=1, $beaconInterval=0.1, $priority=2, $packetSize=200, $ploegH=0.5, $leaderHeadway=1.2, $fakeSpeed=(4 == 3), $fakeAcc=(4 == 4), $fakePos=(4 == 2)"
attr iterationvarsf attacker=4,attackSpeed=150,attackPos=7,attackAcc=0,leaderSpeed=150,controller=1,CACCSpacing=5,sController=CACC,attackStart=30,5,0,nCars=8,platoonSize=8,nLanes=1,beaconInterval=0.1,priority=2,packetSize=200,ploegH=0.5,leaderHeadway=1.2,fakeSpeed=(4_==_3),fakeAcc=(4_==_4),fakePos=(4_==_2)-
attr leaderHeadway 1.2
attr leaderSpeed 150
attr measurement "$attacker=4, $attackSpeed=150, $attackPos=7, $attackAcc=0, $leaderSpeed=150, $controller=1, $CACCSpacing=5, $sController=\"CACC\", $attackStart=30, $0=5, $1=0, $nCars=8, $platoonSize=8, $nLanes=1, $beaconInterval=0.1, $priority=2, $packetSize=200, $ploegH=0.5, $leaderHeadway=1.2, $fakeSpeed=(4 == 3), $fakeAcc=(4 == 4), $fakePos=(4 == 2)"
attr nCars 8
attr nLanes 1
attr network scenario
attr packetSize 200
attr platoonSize 8
attr ploegH 0.5
attr priority 2
attr processid 108316
attr repetition 3
attr replication #3
attr resultdir results
attr runnumber 163
attr sController "\"CACC\""
attr seedset 3
param **.coreDebug false
param **.debug false
param **.headway 0.1s
param **.numberOfCars 8
param **.numberOfCarsPerPlatoon 8
param **.numberOfLanes 1
param **.numericController 1
param **.traffic.nCars 8
param **.traffic.nLanes 1
param **.traffic.platoonInsertDistance 5m
param **.traffic.platoonInsertHeadway 0s
param **.traffic.platoonInsertSpeed 150kmph
param **.traffic.platoonInsertTime "1 s"
param **.traffic.platoonLeaderHeadway 1.2s
param **.traffic.platoonSize 8
param **.traffic.platooningVType "\"vtypeauto\""
param **.traffic_type "\"PlatoonsTrafficManager\""
param *.**.nic.mac1609_4.bitrate 6Mbps
param *.**.nic.mac1609_4.txPower 100mW
param *.**.nic.mac1609_4.useServiceChannel false
param *.**.nic.phy80211p.analogueModels "xmldoc(\"config.xml\")"
param *.**.nic.phy80211p.decider "xmldoc(\"config.xml\")"
param *.**.nic.phy80211p.maxTXPower 100mW
param *.**.nic.phy80211p.sensitivity -94dBm
param *.**.nic.phy80211p.thermalNoise -95dBm
param *.**.nic.phy80211p.usePropagationDelay true
param *.**.nic.phy80211p.useThermalNoise true
param *.annotations.draw false
param *.connectionManager.alpha 2.0
param *.connectionManager.carrierFrequency "5.890e9 Hz"
param *.connectionManager.pMax 100mW
param *.connectionManager.sat -94dBm
param *.connectionManager.sendDirect true
param *.manager.autoShutdown true
param *.manager.commandLine "\"sumo --remote-port $port --seed $seed --configuration-file $configFile\""
param *.manager.configFile "\"./sumocfg/freeway.sumo.cfg\""
param *.manager.host "\"localhost\""
param *.manager.margin 25
param *.manager.moduleDisplayString "\"\""
param *.manager.moduleName "\"node\""
param *.manager.moduleType "\"Car\""
param *.manager.updateInterval 0.01s
param *.node[*].appl.attackStart 30s
param *.node[*].appl.attackerType 4
param *.node[*].appl.simulationDuration "60 s"
param *.node[*].appl_type "\"SimplePlatooningApp\""
param *.node[*].helper.nCars 8
param *.node[*].helper.nLanes 1
param *.node[*].helper.platoonSize 8
param *.node[*].helper_type "\"PositionHelper\""
param *.node[*].mobility.x 0
param *.node[*].mobility.y 0
param *.node[*].mobility.z 1.895
param *.node[*].prot.attackStart 30s
param *.node[*].prot.attackerType 4
param *.node[*].prot.attackingNode 3
param *.node[*].prot.beaconingInterval 0.1s
param *.node[*].prot.fakeAcc "(4 == 4)"
param *.node[*].prot.fakePos "(4 == 2)"
param *.node[*].prot.fakeSpeed "(4 == 3)"
param *.node[*].prot.maliciousAcc "0 mpss"
param *.node[*].prot.maliciousSpeed 150kmph
param *.node[*].prot.packetSize 200
param *.node[*].prot.priority 2
param *.node[*].prot.shiftX "7 m"
param *.node[*].prot.useControllerAcceleration true
param *.node[*].protocol_type "\"SimplePlatooningBeaconing\""
param *.node[*].scenario.accHeadway 0.1s
param *.node[*].scenario.caccC1 0.5
param *.node[*].scenario.caccOmegaN "0.2 Hz"
param *.node[*].scenario.caccSpacing 5m
param *.node[*].scenario.caccXi 1
param *.node[*].scenario.controller "\"CACC\""
param *.node[*].scenario.engineTau "0.5 s"
param *.node[*].scenario.leaderHeadway 1.2s
param *.node[*].scenario.leaderOscillationFrequency "0.2 Hz"
param *.node[*].scenario.leaderSpeed 150kmph
param *.node[*].scenario.oscillationAmplitude "10 kmph"
param *.node[*].scenario.ploegH 0.5s
param *.node[*].scenario.ploegKd 0.7
param *.node[*].scenario.ploegKp 0.2
param *.node[*].scenario.startOscillating "5 s"
param *.node[*].scenario.useRealisticEngine false
param *.node[*].scenario_type "\"SinusoidalScenario\""
param *.node[*].unicast.packetLossRate 0
param *.obstacles.debug false
param *.playgroundSizeX 65000m
param *.playgroundSizeY 25000m
param *.playgroundSizeZ 50m
param *.world.use2D false
param *.world.useTorus false

vector 0  scenario.node[0].appl  distance  ETV
vector 1  scenario.node[0].appl  relativeSpeed  ETV
vector 2  scenario.node[0].appl  nodeId  ETV
vector 6  scenario.node[0].appl  acceleration  ETV
vector 7  scenario.node[0].appl  controllerAcceleration  ETV
vector 3  scenario.node[0].appl  speed  ETV
vector 4  scenario.node[0].appl  posx  ETV
vector 5  scenario.node[0].appl  posy  ETV
vector 22  scenario.node[1].appl  distance  ETV
vector 23  scenario.node[1].appl  relativeSpeed  ETV
vector 24  scenario.node[1].appl  nodeId  ETV
vector 28  scenario.node[1].appl  acceleration  ETV
vector 29  scenario.node[1].appl  controllerAcceleration  ETV
vector 25  scenario.node[1].appl  speed  ETV
vector 26  scenario.node[1].appl  posx  ETV
vector 27  scenario.node[1].appl  posy  ETV
vector 44  scenario.node[2].appl  distance  ETV
vector 45  scenario.node[2].appl  relativeSpeed  ETV
vector 46  scenario.node[2].appl  nodeId  ETV
vector 50  scenario.node[2].appl  acceleration  ETV
vector 51  scenario.node[2].appl  controllerAcceleration  ETV
vector 47  scenario.node[2].appl  speed  ETV
vector 48  scenario.node[2].appl  posx  ETV
vector 49  scenario.node[2].appl  posy  ETV
vector 66  scenario.node[3].appl  distance  ETV
vector 67  scenario.node[3].appl  relativeSpeed  ETV
vector 68  scenario.node[3].appl  nodeId  ETV
vector 72  scenario.node[3].appl  acceleration  ETV
vector 73  scenario.node[3].appl  controllerAcceleration  ETV
vector 69  scenario.node[3].appl  speed  ETV
vector 70  scenario.node[3].appl  posx  ETV
vector 71  scenario.node[3].appl  posy  ETV
vector 88  scenario.node[4].appl  distance  ETV
vector 89  scenario.node[4].appl  relativeSpeed  ETV
vector 90  scenario.node[4].appl  nodeId  ETV
vector 94  scenario.node[4].appl  acceleration  ETV
vector 95  scenario.node[4].appl  controllerAcceleration  ETV
vector 91  scenario.node[4].appl  speed  ETV
vector 92  scenario.node[4].appl  posx  ETV
vector 93  scenario.node[4].appl  posy  ETV
vector 110  scenario.node[5].appl  distance  ETV
vector 111  scenario.node[5].appl  relativeSpeed  ETV
vector 112  scenario.node[5].appl  nodeId  ETV
vector 116  scenario.node[5].appl  acceleration  ETV
vector 117  scenario.node[5].appl  controllerAcceleration  ETV
vector 113  scenario.node[5].appl  speed  ETV
vector 114  scenario.node[5].appl  posx  ETV
vector 115  scenario.node[5].appl  posy  ETV
vector 132  scenario.node[6].appl  distance  ETV
vector 133  scenario.node[6].appl  relativeSpeed  ETV
vector 134  scenario.node[6].appl  nodeId  ETV
vector 138  scenario.node[6].appl  acceleration  ETV
vector 139  scenario.node[6].appl  controllerAcceleration  ETV
vector 135  scenario.node[6].appl  speed  ETV
vector 136  scenario.node[6].appl  posx  ETV
vector 137  scenario.node[6].appl  posy  ETV
vector 154  scenario.node[7].appl  distance  ETV
vector 155  scenario.node[7].appl  relativeSpeed  ETV
vector 156  scenario.node[7].appl  nodeId  ETV
vector 160  scenario.node[7].appl  acceleration  ETV
vector 161  scenario.node[7].appl  controllerAcceleration  ETV
vector 157  scenario.node[7].appl  speed  ETV
vector 158  scenario.node[7].appl  posx  ETV
vector 159  scenario.node[7].appl  posy  ETV
vector 35  scenario.node[1].prot  leaderDelay  ETV
vector 33  scenario.node[1].prot  leaderDelayId  ETV
vector 36  scenario.node[1].prot  frontDelay  ETV
vector 34  scenario.node[1].prot  frontDelayId  ETV
vector 57  scenario.node[2].prot  leaderDelay  ETV
vector 55  scenario.node[2].prot  leaderDelayId  ETV
vector 79  scenario.node[3].prot  leaderDelay  ETV
vector 77  scenario.node[3].prot  leaderDelayId  ETV
vector 101  scenario.node[4].prot  leaderDelay  ETV
vector 99  scenario.node[4].prot  leaderDelayId  ETV
vector 123  scenario.node[5].prot  leaderDelay  ETV
vector 121  scenario.node[5].prot  leaderDelayId  ETV
vector 145  scenario.node[6].prot  leaderDelay  ETV
vector 143  scenario.node[6].prot  leaderDelayId  ETV
vector 167  scenario.node[7].prot  leaderDelay  ETV
vector 165  scenario.node[7].prot  leaderDelayId  ETV
vector 168  scenario.node[7].prot  frontDelay  ETV
vector 166  scenario.node[7].prot  frontDelayId  ETV
vector 58  scenario.node[2].prot  frontDelay  ETV
vector 56  scenario.node[2].prot  frontDelayId  ETV
vector 124  scenario.node[5].prot  frontDelay  ETV
vector 122  scenario.node[5].prot  frontDelayId  ETV
vector 80  scenario.node[3].prot  frontDelay  ETV
vector 78  scenario.node[3].prot  frontDelayId  ETV
vector 146  scenario.node[6].prot  frontDelay  ETV
vector 144  scenario.node[6].prot  frontDelayId  ETV
vector 102  scenario.node[4].prot  frontDelay  ETV
vector 100  scenario.node[4].prot  frontDelayId  ETV
vector 8  scenario.node[0].prot  nodeId  ETV
vector 9  scenario.node[0].prot  busyTime  ETV
vector 10  scenario.node[0].prot  collisions  ETV
vector 30  scenario.node[1].prot  nodeId  ETV
vector 31  scenario.node[1].prot  busyTime  ETV
vector 32  scenario.node[1].prot  collisions  ETV
vector 52  scenario.node[2].prot  nodeId  ETV
vector 53  scenario.node[2].prot  busyTime  ETV
vector 54  scenario.node[2].prot  collisions  ETV
vector 74  scenario.node[3].prot  nodeId  ETV
vector 75  scenario.node[3].prot  busyTime  ETV
vector 76  scenario.node[3].prot  collisions  ETV
vector 96  scenario.node[4].prot  nodeId  ETV
vector 97  scenario.node[4].prot  busyTime  ETV
vector 98  scenario.node[4].prot  collisions  ETV
vector 118  scenario.node[5].prot  nodeId  ETV
vector 119  scenario.node[5].prot  busyTime  ETV
vector 120  scenario.node[5].prot  collisions  ETV
vector 140  scenario.node[6].prot  nodeId  ETV
vector 141  scenario.node[6].prot  busyTime  ETV
vector 142  scenario.node[6].prot  collisions  ETV
vector 162  scenario.node[7].prot  nodeId  ETV
vector 163  scenario.node[7].prot  busyTime  ETV
vector 164  scenario.node[7].prot  collisions  ETV
7	232	1.11	-1.264609664986e-06
7	788	1.21	-1.2370558053476e-06
7	1344	1.31	-1.1922643139428e-06
7	1900	1.41	-1.1341353030048e-06
7	2456	1.51	-1.0661075364737e-06
7	3012	1.61	-9.9117950469463e-07
7	3568	1.71	-9.1193474816009e-07
7	4124	1.81	-8.3057002342457e-07
7	4680	1.91	-7.4892560064654e-07
7	5244	2.01	-6.6851609403784e-07
7	5800	2.11	-5.9056183232542e-07
7	6356	2.21	-5.1602003736662e-07
7	6912	2.31	-4.4561458878434e-07
7	7468	2.41	-3.7986517753552e-07
7	8024	2.51	-3.1911461206846e-07
7	8580	2.61	-2.6355444049386e-07
7	9136	2.71	-2.1324864718508e-07
7	9692	2.81	-1.6815555881067e-07
7	10248	2.91	-1.2814749794643e-07
7	10812	3.01	-9.3028553749264e-08
7	11368	3.11	-6.255026363533e-08
7	11924	3.21	-3.6425589655664e-08
7	12480	3.31	-1.4340962195547e-08
7	13036	3.41	4.0332679418498e-09
7	13592	3.51	1.9034231968362e-08
7	14148	3.61	3.0998883460143e-08
7	14704	3.71	4.0258086642098e-08
7	15260	3.81	4.7131671010447e-08
7	15816	3.91	5.1925063360159e-08
7	16380	4.01	5.4926061920924e-08
7	16936	4.11	5.6402775783226e-08
7	17492	4.21	5.6602530662531e-08
7	18048	4.31	5.5751151251116e-08
7	18604	4.41	5.4052726738973e-08
7	19160	4.51	5.1689909241759e-08
7	19716	4.61	4.8824482234977e-08
7	20272	4.71	4.5598198994412e-08
7	20828	4.81	4.2133798672239e-08
7	21384	4.91	3.8536192903393e-08
7	21949	5.01	3.4893794520485e-08
7	22506	5.11	0.34814790229188
7	23063	5.21	0.68726938086839
7	23620	5.31	1.0064706392337
7	24177	5.41	1.2963311769431
7	24734	5.51	1.5
7	25291	5.61	1.5
7	25848	5.71	1.5
7	26405	5.81	1.5
7	26962	5.91	1.5
7	27527	6.01	1.5
7	28084	6.11	1.5
7	28641	6.21	1.5
7	29198	6.31	1.5
7	29755	6.41	1.5
7	30312	6.51	1.4919234166485
7	30869	6.61	1.2264993309071
7	31426	6.71	0.9230538423432
7	31983	6.81	0.58908102202894
7	32540	6.91	0.23235621850268
7	33105	7.01	-0.13919559587845
7	33662	7.11	-0.51762846369643
7	34219	7.21	-0.89509993758214
7	34776	7.31	-1.2639902868434
7	35333	7.41	-1.5
7	35890	7.51	-1.5
7	36447	7.61	-1.5
7	37004	7.71	-1.5
7	37561	7.81	-1.5
7	38118	7.91	-1.5
7	38683	8.01	-1.5
7	39240	8.11	-1.5
7	39797	8.21	-1.5
7	40354	8.31	-1.5
7	40911	8.41	-1.5
7	41468	8.51	-1.5
7	42025	8.61	-1.5
7	42582	8.71	-1.5
7	43139	8.81	-1.5
7	43696	8.91	-1.5
7	44261	9.01	-1.5
7	44818	9.11	-1.5
7	45375	9.21	-1.5
7	45932	9.31	-1.5
7	46489	9.41	-1.5
7	47046	9.51	-1.1784535903605
7	47603	9.61	-0.73985166412807
7	48160	9.71	-0.29046662052636
7	48717	9.81	0.1586820567595
7	49274	9.91	0.59737147696769
7	49839	10.01	1.0162504342412
7	50396	10.11	1.4069035499393
7	50953	10.21	1.5
7	51510	10.31	1.5
7	52067	10.41	1.5
7	52624	10.51	1.5
7	53181	10.61	1.5
7	53738	10.71	1.5
7	54295	10.81	1.5
7	54852	10.91	1.5
7	55417	11.01	1.5
7	55974	11.11	1.5
7	56531	11.21	1.5
7	57088	11.31	1.5
7	57645	11.41	1.5
7	58202	11.51	1.5
7	58759	11.61	1.5
7	59316	11.71	1.5
7	59873	11.81	1.5
7	60430	11.91	1.1420569523654
7	60995	12.01	0.73271074176932
7	61552	12.11	0.30763491705864
7	62109	12.21	-0.12290183397916
7	62666	12.31	-0.54917422862574
7	63223	12.41	-0.96209331714029
7	63780	12.51	-1.3532900275071
7	64337	12.61	-1.5
7	64894	12.71	-1.5
7	65451	12.81	-1.5
7	66008	12.91	-1.5
7	66573	13.01	-1.5
7	67130	13.11	-1.5
7	67687	13.21	-1.5
7	68244	13.31	-1.5
7	68801	13.41	-1.5
7	69358	13.51	-1.5
7	69915	13.61	-1.5
7	70472	13.71	-1.5
7	71029	13.81	-1.5
7	71586	13.91	-1.5
7	72151	14.01	-1.5
7	72708	14.11	-1.5
7	73265	14.21	-1.5
7	73822	14.31	-1.5
7	74379	14.41	-1.3008305793046
7	74936	14.51	-0.88835736019924
7	75493	14.61	-0.45792464373664
7	76050	14.71	-0.020297800469415
7	76607	14.81	0.41435934758473
7	77164	14.91	0.83657487485725
7	77729	15.01	1.2376491839042
7	78286	15.11	1.5
7	78843	15.21	1.5
7	79400	15.31	1.5
7	79957	15.41	1.5
7	80514	15.51	1.5
7	81071	15.61	1.5
7	81628	15.71	1.5
7	82185	15.81	1.5
7	82742	15.91	1.5
7	83307	16.01	1.5
7	83864	16.11	1.5
7	84421	16.21	1.5
7	84978	16.31	1.5
7	85535	16.41	1.5
7	86092	16.51	1.5
7	86649	16.61	1.5
7	87206	16.71	1.5
7	87763	16.81	1.5
7	88320	16.91	1.2451238477419
7	88885	17.01	0.83347870135727
7	89442	17.11	0.40470958877236
7	89999	17.21	-0.030598062215738
7	90556	17.31	-0.46243980386358
7	91113	17.41	-0.88148335304344
7	91670	17.51	-1.2791500631696
7	92227	17.61	-1.5
7	92784	17.71	-1.5
7	93341	17.81	-1.5
7	93898	17.91	-1.5
7	94463	18.01	-1.5
7	95020	18.11	-1.5
7	95577	18.21	-1.5
7	96134	18.31	-1.5
7	96691	18.41	-1.5
7	97248	18.51	-1.5
7	97805	18.61	-1.5
7	98362	18.71	-1.5
7	98919	18.81	-1.5
7	99476	18.91	-1.5
7	100041	19.01	-1.5
7	100598	19.11	-1.5
7	101155	19.21	-1.5
7	101712	19.31	-1.5
7	102269	19.41	-1.2657245815119
7	102826	19.51	-0.85377693481423
7	103383	19.61	-0.42439560038014
7	103940	19.71	0.011767371268903
7	104497	19.81	0.44464851836469
7	105054	19.91	0.86486384400589
7	105619	20.01	1.2637899041132
7	106176	20.11	1.5
7	106733	20.21	1.5
7	107290	20.31	1.5
7	107847	20.41	1.5
7	108404	20.51	1.5
7	108961	20.61	1.5
7	109518	20.71	1.5
7	110075	20.81	1.5
7	110632	20.91	1.5
7	111197	21.01	1.5
7	111754	21.11	1.5
7	112311	21.21	1.5
7	112868	21.31	1.5
7	113425	21.41	1.5
7	113982	21.51	1.5
7	114539	21.61	1.5
7	115096	21.71	1.5
7	115653	21.81	1.5
7	116210	21.91	1.2580915517757
7	116775	22.01	0.84625491634767
7	117332	22.11	0.41709956367446
7	117889	22.21	-0.01874716354331
7	118446	22.31	-0.45124369149482
7	119003	22.41	-0.87102520538662
7	119560	22.51	-1.2694848794604
7	120117	22.61	-1.5
7	120674	22.71	-1.5
7	121231	22.81	-1.5
7	121788	22.91	-1.5
7	122353	23.01	-1.5
7	122910	23.11	-1.5
7	123467	23.21	-1.5
7	124024	23.31	-1.5
7	124581	23.41	-1.5
7	125138	23.51	-1.5
7	125695	23.61	-1.5
7	126252	23.71	-1.5
7	126809	23.81	-1.5
7	127366	23.91	-1.5
7	127931	24.01	-1.5
7	128488	24.11	-1.5
7	129045	24.21	-1.5
7	129602	24.31	-1.5
7	130159	24.41	-1.2609239651136
7	130716	24.51	-0.84904615684721
7	131273	24.61	-0.41980696481297
7	131830	24.71	0.0161570994443
7	132387	24.81	0.44879633965842
7	132944	24.91	0.86873882266714
7	133509	25.01	1.267371555718
7	134066	25.11	1.5
7	134623	25.21	1.5
7	135180	25.31	1.5
7	135737	25.41	1.5
7	136294	25.51	1.5
7	136851	25.61	1.5
7	137408	25.71	1.5
7	137965	25.81	1.5
7	138522	25.91	1.5
7	139087	26.01	1.5
7	139644	26.11	1.5
7	140201	26.21	1.5
7	140758	26.31	1.5
7	141315	26.41	1.5
7	141872	26.51	1.5
7	142429	26.61	1.5
7	142986	26.71	1.5
7	143543	26.81	1.5
7	144100	26.91	1.259872851865
7	144665	27.01	0.84801032251606
7	145222	27.11	0.41880224309333
7	145779	27.21	-0.017118277439927
7	146336	27.31	-0.449704557082
7	146893	27.41	-0.86958730431672
7	147450	27.51	-1.2681558149805
7	148007	27.61	-1.5
7	148564	27.71	-1.5
7	149121	27.81	-1.5
7	149678	27.91	-1.5
7	150243	28.01	-1.5
7	150800	28.11	-1.5
7	151357	28.21	-1.5
7	151914	28.31	-1.5
7	152471	28.41	-1.5
7	153028	28.51	-1.5
7	153585	28.61	-1.5
7	154142	28.71	-1.5
7	154699	28.81	-1.5
7	155256	28.91	-1.5
7	155821	29.01	-1.5
7	156378	29.11	-1.5
7	156935	29.21	-1.5
7	157492	29.31	-1.5
7	158049	29.41	-1.2602629232498
7	158606	29.51	-0.84839472385467
7	159163	29.61	-0.41917509845132
7	159720	29.71	0.016761581288272
7	160277	29.81	0.44936751475921
7	160834	29.91	0.8692724301223
7	161399	30.01	1.2678647739114
7	161956	30.11	1.5
7	162513	30.21	1.5
7	163070	30.31	1.5
7	163627	30.41	1.5
7	164184	30.51	1.5
7	164741	30.61	1.5
7	165298	30.71	1.5
7	165855	30.81	1.5
7	166412	30.91	1.5
7	166977	31.01	1.5
7	167534	31.11	1.5
7	168091	31.21	1.5
7	168648	31.31	1.5
7	169205	31.41	1.5
7	169762	31.51	1.5
7	170319	31.61	1.5
7	170876	31.71	1.5
7	171433	31.81	1.5
7	171990	31.91	1.2601181665227
7	172555	32.01	0.84825207129943
7	173112	32.11	0.41903673064581
7	173669	32.21	-0.016893952361286
7	174226	32.31	-0.44949259223436
7	174783	32.41	-0.86938928093497
7	175340	32.51	-1.2679727801759
7	175897	32.61	-1.5
7	176454	32.71	-1.5
7	177011	32.81	-1.5
7	177568	32.91	-1.5
7	178133	33.01	-1.5
7	178690	33.11	-1.5
7	179247	33.21	-1.5
7	179804	33.31	-1.5
7	180361	33.41	-1.5
7	180918	33.51	-1.5
7	181475	33.61	-1.5
7	182032	33.71	-1.5
7	182589	33.81	-1.5
7	183146	33.91	-1.5
7	183711	34.01	-1.5
7	184268	34.11	-1.5
7	184825	34.21	-1.5
7	185382	34.31	-1.5
7	185939	34.41	-1.2601718862024
7	186496	34.51	-0.8483050101143
7	187053	34.61	-0.41908807937658
7	187610	34.71	0.01684482903692
7	188167	34.81	0.44944617558719
7	188724	34.91	0.86934591722818
7	189289	35.01	1.2679326987088
7	189846	35.11	1.5
7	190403	35.21	1.5
6	232	1.11	-1.8587371641843e-07
6	788	1.21	-3.7715039979958e-07
6	1344	1.31	-5.2730015909219e-07
6	1900	1.41	-6.4101826069418e-07
6	2456	1.51	-7.2280812446479e-07
6	3012	1.61	-7.7694011224594e-07
6	3568	1.71	-8.0741315855448e-07
6	4124	1.81	-8.1792990158647e-07
6	4680	1.91	-8.1188602507609e-07
6	5244	2.01	-7.9236670558203e-07
6	5800	2.11	-7.6214163868826e-07
6	6356	2.21	-7.2367640768789e-07
6	6912	2.31	-6.7914172063865e-07
6	7468	2.41	-6.3042691067494e-07
6	8024	2.51	-5.791562784907e-07
6	8580	2.61	-5.2670969807878e-07
6	9136	2.71	-4.7423895921384e-07
6	9692	2.81	-4.226883731917e-07
6	10248	2.91	-3.7281679965417e-07
6	10812	3.01	-3.2521825232834e-07
6	11368	3.11	-2.8033753096679e-07
6	11924	3.21	-2.3849224817241e-07
6	12480	3.31	-1.9988561916762e-07
6	13036	3.41	-1.6463133079014e-07
6	13592	3.51	-1.3275709420668e-07
6	14148	3.61	-1.0422880336591e-07
6	14704	3.71	-7.8954798254927e-08
6	15260	3.81	-5.6805049553077e-08
6	15816	3.91	-3.7617553516611e-08
6	16380	4.01	-2.1201884692346e-08
6	16936	4.11	-7.354117315117e-09
6	17492	4.21	4.1374903503311e-09
6	18048	4.31	1.3491074923877e-08
6	18604	4.41	2.0921930854456e-08
6	19160	4.51	2.6641799877325e-08
6	19716	4.61	3.0856028843118e-08
6	20272	4.71	3.3759306461434e-08
6	20828	4.81	3.5534952758098e-08
6	21384	4.91	3.6354919075166e-08
6	21949	5.01	3.6375524814503e-08
6	22506	5.11	0.0068264645847194
6	23063	5.21	0.074594848256737
6	23620	5.31	0.19005135781356
6	24177	5.41	0.34050273679327
6	24734	5.51	0.51301639903159
6	25291	5.61	0.69025459358016
6	25848	5.71	0.8357267325124
6	26405	5.81	0.95506455436478
6	26962	5.91	1.0529631336311
6	27527	6.01	1.1332740666944
6	28084	6.11	1.1991570040927
6	28641	6.21	1.2532039597787
6	29198	6.31	1.2975412879882
6	29755	6.41	1.3339133398063
6	30312	6.51	1.3635927262982
6	30869	6.61	1.370205363024
6	31426	6.71	1.3272611941339
6	31983	6.81	1.237381093641
6	32540	6.91	1.1040433769786
6	33105	7.01	0.9314709214955
6	33662	7.11	0.72451590696545
6	34219	7.21	0.48854318469935
6	34776	7.31	0.22931329740459
6	35333	7.41	-0.044839397355645
6	35890	7.51	-0.30626147357466
6	36447	7.61	-0.52071862935179
6	37004	7.71	-0.69664819248914
6	37561	7.81	-0.84097171050672
6	38118	7.91	-0.95936726314534
6	38683	8.01	-1.0564928534642
6	39240	8.11	-1.1361696663563
6	39797	8.21	-1.2015324043531
6	40354	8.31	-1.255152615343
6	40911	8.41	-1.299139864269
6	41468	8.51	-1.3352247291408
6	42025	8.61	-1.3648268866902
6	42582	8.71	-1.3891109663092
6	43139	8.81	-1.4090323697367
6	43696	8.91	-1.4253748591699
6	44261	9.01	-1.4387813925914
6	44818	9.11	-1.4497794194909
6	45375	9.21	-1.4588016321618
6	45932	9.31	-1.466202988987
6	46489	9.41	-1.4722746794739
6	47046	9.51	-1.469624914661
6	47603	9.61	-1.3967850638842
6	48160	9.71	-1.2587757640922
6	48717	9.81	-1.0660952217464
6	49274	9.91	-0.82923335013376
6	49839	10.01	-0.55852907828324
6	50396	10.11	-0.26404116063858
6	50953	10.21	0.039432698787323
6	51510	10.31	0.30182609759564
6	52067	10.41	0.51708007620732
6	52624	10.51	0.69366331160268
6	53181	10.61	0.83852306854624
6	53738	10.71	0.95735852387477
6	54295	10.81	1.0548449876183
6	54852	10.91	1.1348178424115
6	55417	11.01	1.2004234378772
6	55974	11.11	1.2542428765791
6	56531	11.21	1.2983935616198
6	57088	11.31	1.3346125010308
6	57645	11.41	1.3643246463992
6	58202	11.51	1.3886989543394
6	58759	11.61	1.4086943764177
6	59316	11.71	1.425097586926
6	59873	11.81	1.4385539327783
6	60430	11.91	1.434562737289
6	60995	12.01	1.3623449188863
6	61552	12.11	1.229987565462
6	62109	12.21	1.0461448397947
6	62666	12.31	0.81967864250814
6	63223	12.41	0.55952045906622
6	63780	12.51	0.27454262951352
6	64337	12.61	-0.022341644856283
6	64894	12.71	-0.28780548056062
6	65451	12.81	-0.50557828686024
6	66008	12.91	-0.68422783826705
6	66573	13.01	-0.83078269403671
6	67130	13.11	-0.95100872080636
6	67687	13.21	-1.049635937467
6	68244	13.31	-1.1305446069755
6	68801	13.41	-1.1969178964527
6	69358	13.51	-1.2513671116331
6	69915	13.61	-1.2960344327361
6	70472	13.71	-1.3326771936626
6	71029	13.81	-1.3627370202911
6	71586	13.91	-1.3873965479604
6	72151	14.01	-1.4076259495589
6	72708	14.11	-1.4242211047687
6	73265	14.21	-1.4378349121301
6	73822	14.31	-1.4490029758548
6	74379	14.41	-1.4542593951845
6	74936	14.51	-1.4067454390002
6	75493	14.61	-1.2938574955257
6	76050	14.71	-1.1248409052179
6	76607	14.81	-0.90912582141769
6	77164	14.91	-0.65618298375156
6	77729	15.01	-0.37539052552589
6	78286	15.11	-0.078063005077667
6	78843	15.21	0.20543869668828
6	79400	15.31	0.43800883574505
6	79957	15.41	0.62879735392087
6	80514	15.51	0.78531039044307
6	81071	15.61	0.91370559386164
6	81628	15.71	1.0190343806975
6	82185	15.81	1.1054406719069
6	82742	15.91	1.1763239259999
6	83307	16.01	1.2344728829831
6	83864	16.11	1.2821752809849
6	84421	16.21	1.3213078620858
6	84978	16.31	1.353410208462
6	85535	16.41	1.3797453137336
6	86092	16.51	1.4013492725695
6	86649	16.61	1.4190720434712
6	87206	16.71	1.4336108884486
6	87763	16.81	1.4455378052077
6	88320	16.91	1.4502949065331
6	88885	17.01	1.3935559567543
6	89442	17.11	1.2733368701461
6	89999	17.21	1.0986742440551
6	90556	17.31	0.8787967659174
6	91113	17.41	0.6229832927616
6	91670	17.51	0.34043137853601
6	92227	17.61	0.043031849082098
6	92784	17.71	-0.23417644595227
6	93341	17.81	-0.46158379949475
6	93898	17.91	-0.64813703535265
6	94463	18.01	-0.80117566522517
6	95020	18.11	-0.92672064505592
6	95577	18.21	-1.0297112558185
6	96134	18.31	-1.114199428261
6	96691	18.41	-1.1835091568827
6	97248	18.51	-1.2403672749222
6	97805	18.61	-1.2870107353905
6	98362	18.71	-1.3252746188861
6	98919	18.81	-1.3566643306582
6	99476	18.91	-1.3824148273436
6	100041	19.01	-1.4035392035204
6	100598	19.11	-1.420868549603
6	101155	19.21	-1.4350846492
6	101712	19.31	-1.4467468023348
6	102269	19.41	-1.4517201941764
6	102826	19.51	-1.3984004323881
6	103383	19.61	-1.2808993810083
6	103940	19.71	-1.1083308503771
6	104497	19.81	-0.88999806036725
6	105054	19.91	-0.63525086466711
6	105619	20.01	-0.35335363991251
6	106176	20.11	-0.055983891306255
6	106733	20.21	0.22355126013451
6	107290	20.31	0.45286744637352
6	107847	20.41	0.64098658988883
6	108404	20.51	0.7953098094454
6	108961	20.61	0.92190860023962
6	109518	20.71	1.025763703035
6	110075	20.81	1.110961060045
6	110632	20.91	1.1808525670219
6	111197	21.01	1.2381879459468
6	111754	21.11	1.2852229265718
6	112311	21.21	1.3238079929607
6	112868	21.31	1.3554611865736
6	113425	21.41	1.3814278301389
6	113982	21.51	1.4027295220423
6	114539	21.61	1.4202043287803
6	115096	21.71	1.4345397567773
6	115653	21.81	1.4462998007623
6	116210	21.91	1.4512038299465
6	116775	22.01	1.3966149622043
6	117332	22.11	1.2781048258539
6	117889	22.21	1.104758616826
6	118446	22.31	0.88585193074024
6	119003	22.41	0.63070830476164
6	119560	22.51	0.34856734381066
6	120117	22.61	0.0511856543703
6	120674	22.71	-0.2274874856468
6	121231	22.81	-0.45609652228009
6	121788	22.91	-0.64363555681837
6	122353	23.01	-0.79748288496049
6	122910	23.11	-0.9236912790449
6	123467	23.21	-1.0272261205607
6	124024	23.31	-1.1121607517772
6	124581	23.41	-1.1818367320956
6	125138	23.51	-1.2389953040916
6	125695	23.61	-1.2858852414524
6	126252	23.71	-1.3243513218463
6	126809	23.81	-1.355906905502
6	127366	23.91	-1.3817934749042
6	127931	24.01	-1.403029478103
6	128488	24.11	-1.4204503972238
6	129045	24.21	-1.4347416186069
6	129602	24.31	-1.4464653977718
6	130159	24.41	-1.4513952146871
6	130716	24.51	-1.397277320676
6	131273	24.61	-1.2791416668563
6	131830	24.71	-1.1060840673032
6	132387	24.81	-0.88739036841687
6	132944	24.91	-0.63239387292811
6	133509	25.01	-0.35034337811126
6	134066	25.11	-0.052966136912147
6	134623	25.21	0.22602686982154
6	135180	25.31	0.45489830857193
6	135737	25.41	0.64265260423966
6	136294	25.51	0.7966765214853
6	136851	25.61	0.92302978013734
6	137408	25.71	1.0266834610576
6	137965	25.81	1.1117155819754
6	138522	25.91	1.1814715378058
6	139087	26.01	1.2386957175771
6	139644	26.11	1.2856394761641
6	140201	26.21	1.3241497087101
6	140758	26.31	1.3557415125085
6	141315	26.41	1.3816577950429
6	141872	26.51	1.4029181733591
6	142429	26.61	1.4203590885664
6	142986	26.71	1.4346667137048
6	143543	26.81	1.4464039496623
6	144100	26.91	1.4513241957715
6	144665	27.01	1.3970315218245
6	145222	27.11	1.2787568961947
6	145779	27.21	1.1055921925461
6	146336	27.31	0.8868194531928
6	146893	27.41	0.63176835684402
6	147450	27.51	0.34968428947408
6	148007	27.61	0.052305397196051
6	148564	27.71	-0.22656890652399
6	149121	27.81	-0.45534296745871
6	149678	27.91	-0.64301737940156
6	150243	28.01	-0.79697576417033
6	150800	28.11	-0.92327526336575
6	151357	28.21	-1.0268848428062
6	151914	28.31	-1.1118807851517
6	152471	28.41	-1.1816070619503
6	153028	28.51	-1.2388068945782
6	153585	28.61	-1.2857306800278
6	154142	28.71	-1.3242245276466
6	154699	28.81	-1.3558028900952
6	155256	28.91	-1.3817081460417
6	155821	29.01	-1.4029594787168
6	156378	29.11	-1.4203929733462
6	156935	29.21	-1.4346945110262
6	157492	29.31	-1.446426753148
6	158049	29.41	-1.4513505510308
6	158606	29.51	-1.3971227384744
6	159163	29.61	-1.2788996857282
6	159720	29.71	-1.1057747287524
6	160277	29.81	-0.88703132157306
6	160834	29.91	-0.63200048778214
6	161399	30.01	-0.34992887929945
6	161956	30.11	-0.052550599747292
6	162513	30.21	0.22636775502605
6	163070	30.31	0.45517795316883
6	163627	30.41	0.64288201020943
6	164184	30.51	0.79686471428317
6	164741	30.61	0.92318416377992
6	165298	30.71	1.0268101094155
6	165855	30.81	1.1118194777403
6	166412	30.91	1.181556768519
6	166977	31.01	1.2387656364474
6	167534	31.11	1.2856968339904
6	168091	31.21	1.3241967621056
6	168648	31.31	1.3557801126808
6	169205	31.41	1.3816894606293
6	169762	31.51	1.4029441501705
6	170319	31.61	1.4203803985993
6	170876	31.71	1.434684195354
6	171433	31.81	1.4464182907048
6	171990	31.91	1.4513407705138
6	172555	32.01	1.3970888876891
6	173112	32.11	1.2788466960821
6	173669	32.21	1.1057069889901
6	174226	32.31	0.88695269654835
6	174783	32.41	0.63191434325702
6	175340	32.51	0.3498381112415
6	175897	32.61	0.052459604304289
6	176454	32.71	-0.22644240298533
6	177011	32.81	-0.45523919049515
6	177568	32.91	-0.64293224614715
6	178133	33.01	-0.79690592524955
6	178690	33.11	-0.92321797112547
6	179247	33.21	-1.0268378432137
6	179804	33.31	-1.1118422291148
6	180361	33.41	-1.1815754325717
6	180918	33.51	-1.2387809474724
6	181475	33.61	-1.2857093943644
6	182032	33.71	-1.3242070659885
6	182589	33.81	-1.3557885654535
6	183146	33.91	-1.3816963948479
6	183711	34.01	-1.4029498386442
6	184268	34.11	-1.4203850651299
6	184825	34.21	-1.4346880235344
6	185382	34.31	-1.4464214311445
6	185939	34.41	-1.4513444000933
6	186496	34.51	-1.3971014498217
6	187053	34.61	-1.2788663607076
6	187610	34.71	-1.1057321274301
6	188167	34.81	-0.88698187454312
6	188724	34.91	-0.63194631176131
6	189289	35.01	-0.34987179555372
6	189846	35.11	-0.052493373000573
6	190403	35.21	0.22641470089155
5	232	1.11	36.55
5	788	1.21	36.55
5	1344	1.31	36.55
5	1900	1.41	36.55
5	2456	1.51	36.55
5	3012	1.61	36.55
5	3568	1.71	36.55
5	4124	1.81	36.55
5	4680	1.91	36.55
5	5244	2.01	36.55
5	5800	2.11	36.55
5	6356	2.21	36.55
5	6912	2.31	36.55
5	7468	2.41	36.55
5	8024	2.51	36.55
5	8580	2.61	36.55
5	9136	2.71	36.55
5	9692	2.81	36.55
5	10248	2.91	36.55
5	10812	3.01	36.55
5	11368	3.11	36.55
5	11924	3.21	36.55
5	12480	3.31	36.55
5	13036	3.41	36.55
5	13592	3.51	36.55
5	14148	3.61	36.55
5	14704	3.71	36.55
5	15260	3.81	36.55
5	15816	3.91	36.55
5	16380	4.01	36.55
5	16936	4.11	36.55
5	17492	4.21	36.55
5	18048	4.31	36.55
5	18604	4.41	36.55
5	19160	4.51	36.55
5	19716	4.61	36.55
5	20272	4.71	36.55
5	20828	4.81	36.55
5	21384	4.91	36.55
5	21949	5.01	36.55
5	22506	5.11	36.55
5	23063	5.21	36.55
5	23620	5.31	36.55
5	24177	5.41	36.55
5	24734	5.51	36.55
5	25291	5.61	36.55
5	25848	5.71	36.55
5	26405	5.81	36.55
5	26962	5.91	36.55
5	27527	6.01	36.55
5	28084	6.11	36.55
5	28641	6.21	36.55
5	29198	6.31	36.55
5	29755	6.41	36.55
5	30312	6.51	36.55
5	30869	6.61	36.55
5	31426	6.71	36.55
5	31983	6.81	36.55
5	32540	6.91	36.55
5	33105	7.01	36.55
5	33662	7.11	36.55
5	34219	7.21	36.55
5	34776	7.31	36.55
5	35333	7.41	36.55
5	35890	7.51	36.55
5	36447	7.61	36.55
5	37004	7.71	36.55
5	37561	7.81	36.55
5	38118	7.91	36.55
5	38683	8.01	36.55
5	39240	8.11	36.55
5	39797	8.21	36.55
5	40354	8.31	36.55
5	40911	8.41	36.55
5	41468	8.51	36.55
5	42025	8.61	36.55
5	42582	8.71	36.55
5	43139	8.81	36.55
5	43696	8.91	36.55
5	44261	9.01	36.55
5	44818	9.11	36.55
5	45375	9.21	36.55
5	45932	9.31	36.55
5	46489	9.41	36.55
5	47046	9.51	36.55
5	47603	9.61	36.55
5	48160	9.71	36.55
5	48717	9.81	36.55
5	49274	9.91	36.55
5	49839	10.01	36.55
5	50396	10.11	36.55
5	50953	10.21	36.55
5	51510	10.31	36.55
5	52067	10.41	36.55
5	52624	10.51	36.55
5	53181	10.61	36.55
5	53738	10.71	36.55
5	54295	10.81	36.55
5	54852	10.91	36.55
5	55417	11.01	36.55
5	55974	11.11	36.55
5	56531	11.21	36.55
5	57088	11.31	36.55
5	57645	11.41	36.55
5	58202	11.51	36.55
5	58759	11.61	36.55
5	59316	11.71	36.55
5	59873	11.81	36.55
5	60430	11.91	36.55
5	60995	12.01	36.55
5	61552	12.11	36.55
5	62109	12.21	36.55
5	62666	12.31	36.55
5	63223	12.41	36.55
5	63780	12.51	36.55
5	64337	12.61	36.55
5	64894	12.71	36.55
5	65451	12.81	36.55
5	66008	12.91	36.55
5	66573	13.01	36.55
5	67130	13.11	36.55
5	67687	13.21	36.55
5	68244	13.31	36.55
5	68801	13.41	36.55
5	69358	13.51	36.55
5	69915	13.61	36.55
5	70472	13.71	36.55
5	71029	13.81	36.55
5	71586	13.91	36.55
5	72151	14.01	36.55
5	72708	14.11	36.55
5	73265	14.21	36.55
5	73822	14.31	36.55
5	74379	14.41	36.55
5	74936	14.51	36.55
5	75493	14.61	36.55
5	76050	14.71	36.55
5	76607	14.81	36.55
5	77164	14.91	36.55
5	77729	15.01	36.55
5	78286	15.11	36.55
5	78843	15.21	36.55
5	79400	15.31	36.55
5	79957	15.41	36.55
5	80514	15.51	36.55
5	81071	15.61	36.55
5	81628	15.71	36.55
5	82185	15.81	36.55
5	82742	15.91	36.55
5	83307	16.01	36.55
5	83864	16.11	36.55
5	84421	16.21	36.55
5	84978	16.31	36.55
5	85535	16.41	36.55
5	86092	16.51	36.55
5	86649	16.61	36.55
5	87206	16.71	36.55
5	87763	16.81	36.55
5	88320	16.91	36.55
5	88885	17.01	36.55
5	89442	17.11	36.55
5	89999	17.21	36.55
5	90556	17.31	36.55
5	91113	17.41	36.55
5	91670	17.51	36.55
5	92227	17.61	36.55
5	92784	17.71	36.55
5	93341	17.81	36.55
5	93898	17.91	36.55
5	94463	18.01	36.55
5	95020	18.11	36.55
5	95577	18.21	36.55
5	96134	18.31	36.55
5	96691	18.41	36.55
5	97248	18.51	36.55
5	97805	18.61	36.55
5	98362	18.71	36.55
5	98919	18.81	36.55
5	99476	18.91	36.55
5	100041	19.01	36.55
5	100598	19.11	36.55
5	101155	19.21	36.55
5	101712	19.31	36.55
5	102269	19.41	36.55
5	102826	19.51	36.55
5	103383	19.61	36.55
5	103940	19.71	36.55
5	104497	19.81	36.55
5	105054	19.91	36.55
5	105619	20.01	36.55
5	106176	20.11	36.55
5	106733	20.21	36.55
5	107290	20.31	36.55
5	107847	20.41	36.55
5	108404	20.51	36.55
5	108961	20.61	36.55
5	109518	20.71	36.55
5	110075	20.81	36.55
5	110632	20.91	36.55
5	111197	21.01	36.55
5	111754	21.11	36.55
5	112311	21.21	36.55
5	112868	21.31	36.55
5	113425	21.41	36.55
5	113982	21.51	36.55
5	114539	21.61	36.55
5	115096	21.71	36.55
5	115653	21.81	36.55
5	116210	21.91	36.55
5	116775	22.01	36.55
5	117332	22.11	36.55
5	117889	22.21	36.55
5	118446	22.31	36.55
5	119003	22.41	36.55
5	119560	22.51	36.55
5	120117	22.61	36.55
5	120674	22.71	36.55
5	121231	22.81	36.55
5	121788	22.91	36.55
5	122353	23.01	36.55
5	122910	23.11	36.55
5	123467	23.21	36.55
5	124024	23.31	36.55
5	124581	23.41	36.55
5	125138	23.51	36.55
5	125695	23.61	36.55
5	126252	23.71	36.55
5	126809	23.81	36.55
5	127366	23.91	36.55
5	127931	24.01	36.55
5	128488	24.11	36.55
5	129045	24.21	36.55
5	129602	24.31	36.55
5	130159	24.41	36.55
5	130716	24.51	36.55
5	131273	24.61	36.55
5	131830	24.71	36.55
5	132387	24.81	36.55
5	132944	24.91	36.55
5	133509	25.01	36.55
5	134066	25.11	36.55
5	134623	25.21	36.55
5	135180	25.31	36.55
5	135737	25.41	36.55
5	136294	25.51	36.55
5	136851	25.61	36.55
5	137408	25.71	36.55
5	137965	25.81	36.55
5	138522	25.91	36.55
5	139087	26.01	36.55
5	139644	26.11	36.55
5	140201	26.21	36.55
5	140758	26.31	36.55
5	141315	26.41	36.55
5	141872	26.51	36.55
5	142429	26.61	36.55
5	142986	26.71	36.55
5	143543	26.81	36.55
5	144100	26.91	36.55
5	144665	27.01	36.55
5	145222	27.11	36.55
5	145779	27.21	36.55
5	146336	27.31	36.55
5	146893	27.41	36.55
5	147450	27.51	36.55
5	148007	27.61	36.55
5	148564	27.71	36.55
5	149121	27.81	36.55
5	149678	27.91	36.55
5	150243	28.01	36.55
5	150800	28.11	36.55
5	151357	28.21	36.55
5	151914	28.31	36.55
5	152471	28.41	36.55
5	153028	28.51	36.55
5	153585	28.61	36.55
5	154142	28.71	36.55
5	154699	28.81	36.55
5	155256	28.91	36.55
5	155821	29.01	36.55
5	156378	29.11	36.55
5	156935	29.21	36.55
5	157492	29.31	36.55
5	158049	29.41	36.55
5	158606	29.51	36.55
5	159163	29.61	36.55
5	159720	29.71	36.55
5	160277	29.81	36.55
5	160834	29.91	36.55
5	161399	30.01	36.55
5	161956	30.11	36.55
5	162513	30.21	36.55
5	163070	30.31	36.55
5	163627	30.41	36.55
5	164184	30.51	36.55
5	164741	30.61	36.55
5	165298	30.71	36.55
5	165855	30.81	36.55
5	166412	30.91	36.55
5	166977	31.01	36.55
5	167534	31.11	36.55
5	168091	31.21	36.55
5	168648	31.31	36.55
5	169205	31.41	36.55
5	169762	31.51	36.55
5	170319	31.61	36.55
5	170876	31.71	36.55
5	171433	31.81	36.55
5	171990	31.91	36.55
5	172555	32.01	36.55
5	173112	32.11	36.55
5	173669	32.21	36.55
5	174226	32.31	36.55
5	174783	32.41	36.55
5	175340	32.51	36.55
5	175897	32.61	36.55
5	176454	32.71	36.55
5	177011	32.81	36.55
5	177568	32.91	36.55
5	178133	33.01	36.55
5	178690	33.11	36.55
5	179247	33.21	36.55
5	179804	33.31	36.55
5	180361	33.41	36.55
5	180918	33.51	36.55
5	181475	33.61	36.55
5	182032	33.71	36.55
5	182589	33.81	36.55
5	183146	33.91	36.55
5	183711	34.01	36.55
5	184268	34.11	36.55
5	184825	34.21	36.55
5	185382	34.31	36.55
5	185939	34.41	36.55
5	186496	34.51	36.55
5	187053	34.61	36.55
5	187610	34.71	36.55
5	188167	34.81	36.55
5	188724	34.91	36.55
5	189289	35.01	36.55
5	189846	35.11	36.55
5	190403	35.21	36.55
4	232	1.11	106.51262168844
4	788	1.21	110.67928847963
4	1344	1.31	114.84595526673
4	1900	1.41	119.01262204834
4	2456	1.51	123.17928882337
4	3012	1.61	127.34595559106
4	3568	1.71	131.51262235092
4	4124	1.81	135.67928910269
4	4680	1.91	139.84595584629
4	5244	2.01	144.0126225818
4	5800	2.11	148.17928930946
4	6356	2.21	152.34595602956
4	6912	2.31	156.51262274253
4	7468	2.41	160.67928944879
4	8024	2.51	164.84595614886
4	8580	2.61	169.01262284324
4	9136	2.71	173.17928953245
4	9692	2.81	177.34595621703
4	10248	2.91	181.51262289748
4	10812	3.01	185.6792895743
4	11368	3.11	189.84595624795
4	11924	3.21	194.01262291889
4	12480	3.31	198.17928958752
4	13036	3.41	202.34595625422
4	13592	3.51	206.51262291934
4	14148	3.61	210.67928958318
4	14704	3.71	214.84595624604
4	15260	3.81	219.01262290815
4	15816	3.91	223.17928956973
4	16380	4.01	227.34595623097
4	16936	4.11	231.51262289203
4	17492	4.21	235.67928955303
4	18048	4.31	239.84595621409
4	18604	4.41	244.01262287531
4	19160	4.51	248.17928953674
4	19716	4.61	252.34595619845
4	20272	4.71	256.51262286048
4	20828	4.81	260.67928952284
4	21384	4.91	264.84595618557
4	21949	5.01	269.01262284865
4	22506	5.11	273.17929087739
4	23063	5.21	277.34618540818
4	23620	5.31	281.51408003271
4	24177	5.41	285.68419937858
4	24734	5.51	289.85809342952
4	25291	5.61	294.0374970479
4	25848	5.71	298.2240957182
4	26405	5.81	302.41929148082
4	26962	5.91	306.624234629
4	27527	6.01	310.83986880387
4	28084	6.11	315.06696811979
4	28641	6.21	319.3061676202
4	29198	6.31	323.55798826187
4	29755	6.41	327.82285741083
4	30312	6.51	332.10112562439
4	30869	6.61	336.39305065245
4	31426	6.71	340.69858606207
4	31983	6.81	345.01720533671
4	32540	6.91	349.34791970004
4	33105	7.01	353.68931443926
4	33662	7.11	358.03959243985
4	34219	7.21	362.39662377588
4	34776	7.31	366.75800018799
4	35333	7.41	371.12109373922
4	35890	7.51	375.48319150231
4	36447	7.61	379.84179567092
4	37004	7.71	384.19483909973
4	37561	7.81	388.54062600959
4	38118	7.91	392.87776527096
4	38683	8.01	397.20511567311
4	39240	8.11	401.52174102572
4	39797	8.21	405.82687332669
4	40354	8.31	410.11988254677
4	40911	8.41	414.40025184255
4	41468	8.51	418.66755722243
4	42025	8.61	422.92145086561
4	42582	8.71	427.16164743788
4	43139	8.81	431.38791286581
4	43696	8.91	435.60005512767
4	44261	9.01	439.79791669876
4	44818	9.11	443.98136835394
4	45375	9.21	448.15030408361
4	45932	9.31	452.30463692296
4	46489	9.41	456.44429553056
4	47046	9.51	460.56922364441
4	47603	9.61	464.67961656487
4	48160	9.71	468.77633561328
4	48717	9.81	472.86087255202
4	49274	9.91	476.93524449415
4	49839	10.01	481.00188927917
4	50396	10.11	485.06356262393
4	50953	10.21	489.12323728767
4	51510	10.31	493.18384148431
4	52067	10.41	497.24789652301
4	52624	10.51	501.31747722962
4	53181	10.61	505.39428568401
4	53738	10.71	509.4797181845
4	54295	10.81	513.57492018205
4	54852	10.91	517.68083134541
4	55417	11.01	521.79822253024
4	55974	11.11	525.92772610666
4	56531	11.21	530.06986083843
4	57088	11.31	534.22505229252
4	57645	11.41	538.39364958208
4	58202	11.51	542.57593910146
4	58759	11.61	546.7721557938
4	59316	11.71	550.98249239432
4	59873	11.81	555.20710701299
4	60430	11.91	559.44611455567
4	60995	12.01	563.69930999261
4	61552	12.11	567.96584800782
4	62109	12.21	572.24429949997
4	62666	12.31	576.53273857844
4	63223	12.41	580.82883135447
4	63780	12.51	585.12992516446
4	64337	12.61	589.43313780023
4	64894	12.71	593.73558051264
4	65451	12.81	598.03470752725
4	66008	12.91	602.32841973931
4	66573	13.01	606.6149951518
4	67130	13.11	610.89302112739
4	67687	13.21	615.16133881146
4	68244	13.31	619.41899753959
4	68801	13.41	623.66521743582
4	69358	13.51	627.89935873025
4	69915	13.61	632.12089658873
4	70472	13.71	636.32940046446
4	71029	13.81	640.52451715909
4	71586	13.91	644.70595692696
4	72151	14.01	648.87348207572
4	72708	14.11	653.02689761485
4	73265	14.21	657.1660435842
4	73822	14.31	661.29078876074
4	74379	14.41	665.40102627694
4	74936	14.51	669.49682267063
4	75493	14.61	673.57879324786
4	76050	14.71	677.64818174324
4	76607	14.81	681.7067739741
4	77164	14.91	685.75680342466
4	77729	15.01	689.80085669701
4	78286	15.11	693.84177970951
4	78843	15.21	697.88251533594
4	79400	15.31	701.9257727295
4	79957	15.41	705.97379362594
4	80514	15.51	710.02841702938
4	81071	15.61	714.09115156371
4	81628	15.71	718.16323482598
4	82185	15.81	722.24568207681
4	82742	15.91	726.33932618356
4	83307	16.01	730.44485038751
4	83864	16.11	734.56281518451
4	84421	16.21	738.69368037637
4	84978	16.31	742.83782316073
4	85535	16.41	746.99555297101
4	86092	16.51	751.16712365042
4	86649	16.61	755.35274343878
4	87206	16.71	759.55258316529
4	87763	16.81	763.76678296939
4	88320	16.91	767.99545679975
4	88885	17.01	772.23850815239
4	89442	17.11	776.49523865706
4	89999	17.21	780.7643346525
4	90556	17.31	785.04395684188
4	91113	17.41	789.33183271316
4	91670	17.51	793.62534919175
4	92227	17.61	797.92164481027
4	92784	17.71	802.21779392361
4	93341	17.81	806.51114426762
4	93898	17.91	810.79950387046
4	94463	18.01	815.08107455177
4	95020	18.11	819.35438117734
4	95577	18.21	823.61821362333
4	96134	18.31	827.87157916671
4	96691	18.41	832.11366342882
4	97248	18.51	836.34379833553
4	97805	18.61	840.56143583334
4	98362	18.71	844.76612632751
4	98919	18.81	848.95750099376
4	99476	18.91	853.13525726769
4	100041	19.01	857.29914694116
4	100598	19.11	861.448966397
4	101155	19.21	865.58454859822
4	101712	19.31	869.70575651633
4	102269	19.41	873.81247865895
4	102826	19.51	877.90480019199
4	103383	19.61	881.98338865242
4	103940	19.71	886.04953177443
4	104497	19.81	890.10504901773
4	105054	19.91	894.15219840896
4	105619	20.01	898.19358318737
4	106176	20.11	902.23205903121
4	106733	20.21	906.27055793245
4	107290	20.31	910.31175318721
4	107847	20.41	914.35785516651
4	108404	20.51	918.41067714443
4	108961	20.61	922.47170663731
4	109518	20.71	926.54216392663
4	110075	20.81	930.62305006823
4	110632	20.91	934.71518627657
4	111197	21.01	938.81924623354
4	111754	21.11	942.93578259293
4	112311	21.21	947.06524872333
4	112868	21.31	951.2080165449
4	113425	21.41	955.3643911617
4	113982	21.51	959.53462286535
4	114539	21.61	963.71891698214
4	115096	21.71	967.91744195113
4	115653	21.81	972.13033595104
4	116210	21.91	976.35771138788
4	116775	22.01	980.59947896943
4	117332	22.11	984.85495973597
4	117889	22.21	989.12285632729
4	118446	22.31	993.4013419163
4	119003	22.41	997.68815309407
4	119560	22.51	1001.980682964
4	120117	22.61	1006.2760736917
4	120674	22.71	1010.5713956297
4	121231	22.81	1014.863983273
4	121788	22.91	1019.1516330669
4	122353	23.01	1023.4325373288
4	122910	23.11	1027.7052131296
4	123467	23.21	1031.9684439508
4	124024	23.31	1036.2212318234
4	124581	23.41	1040.4627580656
4	125138	23.51	1044.6923510728
4	125695	23.61	1048.9094598954
4	126252	23.71	1053.1136325631
4	126809	23.81	1057.3044983024
4	127366	23.91	1061.4817529502
4	127931	24.01	1065.6451469868
4	128488	24.11	1069.7944757189
4	129045	24.21	1073.929571227
4	129602	24.31	1078.0502957584
4	130159	24.41	1082.1565372456
4	130716	24.51	1086.2483834492
4	131273	24.61	1090.3265090898
4	131830	24.71	1094.3922079552
4	132387	24.81	1098.4473041384
4	132944	24.91	1102.4940590508
4	133509	25.01	1106.5350782316
4	134066	25.11	1110.573218715
4	134623	25.21	1114.6114110181
4	135180	25.31	1118.6523235371
4	135737	25.41	1122.698162356
4	136294	25.51	1126.7507372322
4	136851	25.61	1130.8115327971
4	137408	25.71	1134.8817669654
4	137965	25.81	1138.9624388515
4	138522	25.91	1143.0543680772
4	139087	26.01	1147.1582270177
4	139644	26.11	1151.274567255
4	140201	26.21	1155.4038412785
4	140758	26.31	1159.5464202869
4	141315	26.41	1163.7026087926
4	141872	26.51	1167.8726566018
4	142429	26.61	1172.0567686425
4	142986	26.71	1176.2551130271
4	143543	26.81	1180.4678276664
4	144100	26.91	1184.6950247535
4	144665	27.01	1188.9366159594
4	145222	27.11	1193.1919249904
4	145779	27.21	1197.4596567328
4	146336	27.31	1201.7379860791
4	146893	27.41	1206.0246508766
4	147450	27.51	1210.3170450823
4	148007	27.61	1214.6123113652
4	148564	27.71	1218.9075195307
4	149121	27.81	1223.2000022557
4	149678	27.91	1227.4875543947
4	150243	28.01	1231.7683669604
4	150800	28.11	1236.0409559531
4	151357	28.21	1240.304103976
4	151914	28.31	1244.5568123401
4	152471	28.41	1248.7982617722
4	153028	28.51	1253.0277801832
4	153585	28.61	1257.2448162257
4	154142	28.71	1261.448917603
4	154699	28.81	1265.6397132741
4	155256	28.91	1269.8168988563
4	155821	29.01	1273.9802246498
4	156378	29.11	1278.1294858135
4	156935	29.21	1282.2645143067
4	157492	29.31	1286.3851722774
4	158049	29.41	1290.4913475789
4	158606	29.51	1294.5831283293
4	159163	29.61	1298.6611902386
4	159720	29.71	1302.7268279283
4	160277	29.81	1306.7818661297
4	160834	29.91	1310.8285667201
4	161399	30.01	1314.8695355557
4	161956	30.11	1318.9076298574
4	162513	30.21	1322.9457799393
4	163070	30.31	1326.9866535229
4	163627	30.41	1331.0324561019
4	164184	30.51	1335.0849969494
4	164741	30.61	1339.1457602995
4	165298	30.71	1343.2159637412
4	165855	30.81	1347.2966061215
4	166412	30.91	1351.3885068427
4	166977	31.01	1355.4923381004
4	167534	31.11	1359.6086513288
4	168091	31.21	1363.7378988962
4	168648	31.31	1367.8804519021
4	169205	31.41	1372.0366147773
4	169762	31.51	1376.2066372613
4	170319	31.61	1380.3907242272
4	170876	31.71	1384.5890437424
4	171433	31.81	1388.8017336808
4	171990	31.91	1393.0289062061
4	172555	32.01	1397.2704731222
4	173112	32.11	1401.5257585023
4	173669	32.21	1405.7934675422
4	174226	32.31	1410.0717753713
4	174783	32.41	1414.3584200097
4	175340	32.51	1418.6507955322
4	175897	32.61	1422.9460446768
4	176454	32.71	1427.241237174
4	177011	32.81	1431.5337054499
4	177568	32.91	1435.8212441402
4	178133	33.01	1440.1020440777
4	178690	33.11	1444.3746211154
4	179247	33.21	1448.6377577356
4	179804	33.31	1452.89045515
4	180361	33.41	1457.131894004
4	180918	33.51	1461.3614021418
4	181475	33.61	1465.5784281612
4	182032	33.71	1469.7825197205
4	182589	33.81	1473.9733057421
4	183146	33.91	1478.1504818127
4	183711	34.01	1482.3137982079
4	184268	34.11	1486.4630500663
4	184825	34.21	1490.5980693304
4	185382	34.31	1494.7187181345
4	185939	34.41	1498.824884321
4	186496	34.51	1502.9166560574
4	187053	34.61	1506.9947091897
4	187610	34.71	1511.0603384546
4	188167	34.81	1515.1153686708
4	188724	34.91	1519.1620617801
4	189289	35.01	1523.2030236823
4	189846	35.11	1527.2411116239
4	190403	35.21	1531.2792558913
3	232	1.11	41.666667929418
3	788	1.21	41.666667899951
3	1344	1.31	41.666667853658
3	1900	1.41	41.666667794392
3	2456	1.51	41.666667725546
3	3012	1.61	41.666667650077
3	3568	1.71	41.666667570527
3	4124	1.81	41.666667489057
3	4680	1.91	41.666667407473
3	5244	2.01	41.666667327259
3	5800	2.11	41.666667249607
3	6356	2.21	41.66666717545
3	6912	2.31	41.66666710549
3	7468	2.41	41.666667040228
3	8024	2.51	41.66666697999
3	8580	2.61	41.666666924954
3	9136	2.71	41.666666875173
3	9692	2.81	41.666666830595
3	10248	2.91	41.666666791086
3	10812	3.01	41.666666756443
3	11368	3.11	41.666666726414
3	11924	3.21	41.666666700707
3	12480	3.31	41.666666679009
3	13036	3.41	41.666666660987
3	13592	3.51	41.666666646305
3	14148	3.61	41.666666634625
3	14704	3.71	41.666666625619
3	15260	3.81	41.666666618967
3	15816	3.91	41.666666614365
3	16380	4.01	41.666666611529
3	16936	4.11	41.66666661019
3	17492	4.21	41.666666610106
3	18048	4.31	41.66666661105
3	18604	4.41	41.666666612823
3	19160	4.51	41.666666615243
3	19716	4.61	41.666666618151
3	20272	4.71	41.666666621406
3	20828	4.81	41.666666624888
3	21384	4.91	41.666666628494
3	21949	5.01	41.666666632137
3	22506	5.11	41.666734900033
3	23063	5.21	41.670948476405
3	23620	5.31	41.684664742913
3	24177	5.41	41.711945167374
3	24734	5.51	41.755610823567
3	25291	5.61	41.816952665848
3	25848	5.71	41.894216596382
3	26405	5.81	41.984547685456
3	26962	5.91	42.085598395823
3	27527	6.01	42.195442929292
3	28084	6.11	42.312501460593
3	28641	6.21	42.43547798275
3	29198	6.31	42.563309318645
3	29755	6.41	42.695123292736
3	30312	6.51	42.830202833657
3	30869	6.61	42.967277868462
3	31426	6.71	43.102240784882
3	31983	6.81	43.23027401884
3	32540	6.91	43.346870620625
3	33105	7.01	43.447913783684
3	33662	7.11	43.529744939715
3	34219	7.21	43.589220237998
3	34776	7.31	43.623755328609
3	35333	7.41	43.631381416411
3	35890	7.51	43.612092454521
3	36447	7.61	43.56932103241
3	37004	7.71	43.507285813978
3	37561	7.81	43.429447572987
3	38118	7.91	43.338645349306
3	38683	8.01	43.237208144466
3	39240	8.11	43.127046550912
3	39797	8.21	43.00972791991
3	40354	8.31	42.886538025405
3	40911	8.41	42.758531649867
3	41468	8.51	42.626574082303
3	42025	8.61	42.491375161077
3	42582	8.71	42.353517200886
3	43139	8.81	42.2134779026
3	43696	8.91	42.071649147316
3	44261	9.01	41.928352414027
3	44818	9.11	41.783851427477
3	45375	9.21	41.638362533812
3	45932	9.31	41.492063212224
3	46489	9.41	41.345099057468
3	47046	9.51	41.197687195957
3	47603	9.61	41.054345829873
3	48160	9.71	40.92197732765
3	48717	9.81	40.806518415565
3	49274	9.91	40.712854985186
3	49839	10.01	40.644830941643
3	50396	10.11	40.605270576133
3	50953	10.21	40.595961789979
3	51510	10.31	40.614765090574
3	52067	10.41	40.657138101268
3	52624	10.51	40.71884648357
3	53181	10.61	40.796416605098
3	53738	10.71	40.886998877433
3	54295	10.81	40.988255645561
3	54852	10.91	41.098269218164
3	55417	11.01	41.215466420431
3	55974	11.11	41.33855670108
3	56531	11.21	41.46648135856
3	57088	11.31	41.598371888854
3	57645	11.41	41.733515816169
3	58202	11.51	41.8713286622
3	58759	11.61	42.01133095116
3	59316	11.71	42.153129345907
3	59873	11.81	42.296401172981
3	60430	11.91	42.440475080365
3	60995	12.01	42.58031618601
3	61552	12.11	42.709536275545
3	62109	12.21	42.822598150946
3	62666	12.31	42.914842923842
3	63223	12.41	42.98250305941
3	63780	12.51	43.022702120469
3	64337	12.61	43.033484343958
3	64894	12.71	43.016216261811
3	65451	12.81	42.975102664961
3	66008	12.91	42.914427440664
3	66573	13.01	42.837704868549
3	67130	13.11	42.747817881934
3	67687	13.21	42.647131490264
3	68244	13.31	42.537585825019
3	68801	13.41	42.420772469757
3	69358	13.51	42.297997077347
3	69915	13.61	42.170330737898
3	70472	13.71	42.038652118361
3	71029	13.81	41.903682031675
3	71586	13.91	41.766011795509
3	72151	14.01	41.626126496309
3	72708	14.11	41.484424073913
3	73265	14.21	41.341230977594
3	73822	14.31	41.196815009456
3	74379	14.41	41.051434913329
3	74936	14.51	40.908219760552
3	75493	14.61	40.773448085166
3	76050	14.71	40.653147856182
3	76607	14.81	40.552410818743
3	77164	14.91	40.47538209096
3	77729	15.01	40.425263577507
3	78286	15.11	40.404308597451
3	78843	15.21	40.412557746568
3	79400	15.31	40.44627267704
3	79957	15.41	40.500878417952
3	80514	15.51	40.572621899691
3	81071	15.61	40.658424297982
3	81628	15.71	40.755759904564
3	82185	15.81	40.862556758959
3	82742	15.91	40.977115131913
3	83307	16.01	41.098040653421
3	83864	16.11	41.224189454421
3	84421	16.21	41.354623163871
3	84978	16.31	41.488571990683
3	85535	16.41	41.625404438048
3	86092	16.51	41.76460245863
3	86649	16.61	41.905741073179
3	87206	16.71	42.04847165069
3	87763	16.81	42.19250819231
3	88320	16.91	42.337565506681
3	88885	17.01	42.4798603368
3	89442	17.11	42.612895096878
3	89999	17.21	42.730819673225
3	90556	17.31	42.828699680314
3	91113	17.41	42.90252772365
3	91670	17.51	42.949221043622
3	92227	17.61	42.966635531731
3	92784	17.71	42.955239679248
3	93341	17.81	42.91894335602
3	93898	17.91	42.862219973949
3	94463	18.01	42.788739288885
3	95020	18.11	42.7015117788
3	95577	18.21	42.603007084181
3	96134	18.31	42.495251170402
3	96691	18.41	42.379906034713
3	97248	18.51	42.258335093733
3	97805	18.61	42.131656823968
3	98362	18.71	42.000788765715
3	98919	18.81	41.866483621601
3	99476	18.91	41.729358869944
3	100041	19.01	41.589921058033
3	100598	19.11	41.448585731074
3	101155	19.21	41.305693780873
3	101712	19.31	41.161524857441
3	102269	19.41	41.016354307546
3	102826	19.51	40.873722785233
3	103383	19.61	40.740048622954
3	103940	19.71	40.621247784992
3	104497	19.81	40.522312925574
3	105054	19.91	40.447302443002
3	105619	20.01	40.399343226154
3	106176	20.11	40.380619836989
3	106733	20.21	40.390852261269
3	107290	20.31	40.42619416815
3	107847	20.41	40.482134596392
3	108404	20.51	40.554972986614
3	108961	20.61	40.641673591217
3	109518	20.71	40.73974603982
3	110075	20.81	40.847147361314
3	110632	20.91	40.962201607825
3	111197	21.01	41.083533918363
3	111754	21.11	41.210016428051
3	112311	21.21	41.340723894856
3	112868	21.31	41.47489729805
3	113425	21.41	41.611913976267
3	113982	21.51	41.751263130315
3	114539	21.61	41.892525726947
3	115096	21.71	42.035358012948
3	115653	21.81	42.179477990955
3	116210	21.91	42.324606891881
3	116775	22.01	42.467114711865
3	117332	22.11	42.600552801533
3	117889	22.21	42.71902961828
3	118446	22.31	42.817574119593
3	119003	22.41	42.892146826113
3	119560	22.51	42.939637219565
3	120117	22.61	42.957875746063
3	120674	22.71	42.947212316072
3	121231	22.81	42.911516834389
3	121788	22.91	42.855286351658
3	122353	23.01	42.78221001573
3	122910	23.11	42.695314212772
3	123467	23.21	42.59708163353
3	124024	23.31	42.489548949138
3	124581	23.41	42.374386939297
3	125138	23.51	42.252966225295
3	125695	23.61	42.126411193975
3	126252	23.71	41.995644234173
3	126809	23.81	41.861422026
3	127366	23.91	41.724365310702
3	127931	24.01	41.584983312302
3	128488	24.11	41.443693771862
3	129045	24.21	41.300839382553
3	129602	24.31	41.156701272136
3	130159	24.41	41.011556940943
3	130716	24.51	40.869003238384
3	131273	24.61	40.735477564529
3	131830	24.71	40.616880524647
3	132387	24.81	40.518191181199
3	132944	24.91	40.443456034258
3	133509	25.01	40.395791677168
3	134066	25.11	40.377373233275
3	134623	25.21	40.387876729909
3	135180	25.31	40.423441010534
3	135737	25.41	40.479563862699
3	136294	25.51	40.552551904076
3	136851	25.61	40.63937527475
3	137408	25.71	40.73754843429
3	137965	25.81	40.845032373831
3	138522	25.91	40.960154395916
3	139087	26.01	41.08154230603
3	139644	26.11	41.208070426737
3	140201	26.21	41.338815310463
3	140758	26.31	41.473019408564
3	141315	26.41	41.610061267297
3	141872	26.51	41.749431078138
3	142429	26.61	41.890710620534
3	142986	26.71	42.033556807965
3	143543	26.81	42.177688189986
3	144100	26.91	42.32282679545
3	144665	27.01	42.465363471292
3	145222	27.11	42.598856642818
3	145779	27.21	42.717409067934
3	146336	27.31	42.816044660405
3	146893	27.41	42.890719525564
3	147450	27.51	42.938319324542
3	148007	27.61	42.956671000835
3	148564	27.71	42.946108152695
3	149121	27.81	42.910495183162
3	149678	27.91	42.854332389134
3	150243	28.01	42.781311581518
3	150800	28.11	42.694461331116
3	151357	28.21	42.596266120836
3	151914	28.31	42.488764092008
3	152471	28.41	42.373627230407
3	153028	28.51	42.252227146722
3	153585	28.61	42.125689039447
3	154142	28.71	41.994935963255
3	154699	28.81	41.86072514448
3	155256	28.91	41.723677772453
3	155821	29.01	41.584303438791
3	156378	29.11	41.443020186105
3	156935	29.21	41.300170954946
3	157492	29.31	41.156037076006
3	158049	29.41	41.010896345715
3	158606	29.51	40.868353351213
3	159163	29.61	40.734848117978
3	159720	29.71	40.616279136189
3	160277	29.81	40.517623596567
3	160834	29.91	40.442926360655
3	161399	30.01	40.395302603962
3	161956	30.11	40.376926150007
3	162513	30.21	40.387466972619
3	163070	30.31	40.423061873548
3	163627	30.41	40.479209845027
3	164184	30.51	40.55221849299
3	164741	30.61	40.639058768242
3	165298	30.71	40.737245795424
3	165855	30.81	40.844741111261
3	166412	30.91	40.959872465872
3	166977	31.01	41.081268031907
3	167534	31.11	41.207802433136
3	168091	31.21	41.338552469078
3	168648	31.31	41.47276079379
3	169205	31.41	41.609806119816
3	169762	31.51	41.749178775045
3	170319	31.61	41.890460650831
3	170876	31.71	42.033308752454
3	171433	31.81	42.177441704779
3	171990	31.91	42.32258164654
3	172555	32.01	42.465122296168
3	173112	32.11	42.598623053264
3	173669	32.21	42.71718589082
3	174226	32.31	42.815834027991
3	174783	32.41	42.890522962046
3	175340	32.51	42.938137827955
3	175897	32.61	42.956505086842
3	176454	32.71	42.945956090486
3	177011	32.81	42.910354484241
3	177568	32.91	42.854201012067
3	178133	33.01	42.781187851618
3	178690	33.11	42.694343874556
3	179247	33.21	42.5961538106
3	179804	33.31	42.488656003551
3	180361	33.41	42.373522605279
3	180918	33.51	42.252125362729
3	181475	33.61	42.125589586175
3	182032	33.71	41.994838421986
3	182589	33.81	41.860629171719
3	183146	33.91	41.723583086416
3	183711	34.01	41.584209808314
3	184268	34.11	41.442927421557
3	184825	34.21	41.300078900759
3	185382	34.31	41.155945604564
3	185939	34.41	41.010805370177
3	186496	34.51	40.868263850359
3	187053	34.61	40.734761432154
3	187610	34.71	40.616196314454
3	188167	34.81	40.517545430209
3	188724	34.91	40.442853415309
3	189289	35.01	40.395235250002
3	189846	35.11	40.376864578797
3	190403	35.21	40.387410541851
1	232	1.11	0
1	788	1.21	0
1	1344	1.31	0
1	1900	1.41	0
1	2456	1.51	0
1	3012	1.61	0
1	3568	1.71	0
1	4124	1.81	0
1	4680	1.91	0
1	5244	2.01	0
1	5800	2.11	0
1	6356	2.21	0
1	6912	2.31	0
1	7468	2.41	0
1	8024	2.51	0
1	8580	2.61	0
1	9136	2.71	0
1	9692	2.81	0
1	10248	2.91	0
1	10812	3.01	0
1	11368	3.11	0
1	11924	3.21	0
1	12480	3.31	0
1	13036	3.41	0
1	13592	3.51	0
1	14148	3.61	0
1	14704	3.71	0
1	15260	3.81	0
1	15816	3.91	0
1	16380	4.01	0
1	16936	4.11	0
1	17492	4.21	0
1	18048	4.31	0
1	18604	4.41	0
1	19160	4.51	0
1	19716	4.61	0
1	20272	4.71	0
1	20828	4.81	0
1	21384	4.91	0
1	21949	5.01	0
1	22506	5.11	0
1	23063	5.21	0
1	23620	5.31	0
1	24177	5.41	0
1	24734	5.51	0
1	25291	5.61	0
1	25848	5.71	0
1	26405	5.81	0
1	26962	5.91	0
1	27527	6.01	0
1	28084	6.11	0
1	28641	6.21	0
1	29198	6.31	0
1	29755	6.41	0
1	30312	6.51	0
1	30869	6.61	0
1	31426	6.71	0
1	31983	6.81	0
1	32540	6.91	0
1	33105	7.01	0
1	33662	7.11	0
1	34219	7.21	0
1	34776	7.31	0
1	35333	7.41	0
1	35890	7.51	0
1	36447	7.61	0
1	37004	7.71	0
1	37561	7.81	0
1	38118	7.91	0
1	38683	8.01	0
1	39240	8.11	0
1	39797	8.21	0
1	40354	8.31	0
1	40911	8.41	0
1	41468	8.51	0
1	42025	8.61	0
1	42582	8.71	0
1	43139	8.81	0
1	43696	8.91	0
1	44261	9.01	0
1	44818	9.11	0
1	45375	9.21	0
1	45932	9.31	0
1	46489	9.41	0
1	47046	9.51	0
1	47603	9.61	0
1	48160	9.71	0
1	48717	9.81	0
1	49274	9.91	0
1	49839	10.01	0
1	50396	10.11	0
1	50953	10.21	0
1	51510	10.31	0
1	52067	10.41	0
1	52624	10.51	0
1	53181	10.61	0
1	53738	10.71	0
1	54295	10.81	0
1	54852	10.91	0
1	55417	11.01	0
1	55974	11.11	0
1	56531	11.21	0
1	57088	11.31	0
1	57645	11.41	0
1	58202	11.51	0
1	58759	11.61	0
1	59316	11.71	0
1	59873	11.81	0
1	60430	11.91	0
1	60995	12.01	0
1	61552	12.11	0
1	62109	12.21	0
1	62666	12.31	0
1	63223	12.41	0
1	63780	12.51	0
1	64337	12.61	0
1	64894	12.71	0
1	65451	12.81	0
1	66008	12.91	0
1	66573	13.01	0
1	67130	13.11	0
1	67687	13.21	0
1	68244	13.31	0
1	68801	13.41	0
1	69358	13.51	0
1	69915	13.61	0
1	70472	13.71	0
1	71029	13.81	0
1	71586	13.91	0
1	72151	14.01	0
1	72708	14.11	0
1	73265	14.21	0
1	73822	14.31	0
1	74379	14.41	0
1	74936	14.51	0
1	75493	14.61	0
1	76050	14.71	0
1	76607	14.81	0
1	77164	14.91	0
1	77729	15.01	0
1	78286	15.11	0
1	78843	15.21	0
1	79400	15.31	0
1	79957	15.41	0
1	80514	15.51	0
1	81071	15.61	0
1	81628	15.71	0
1	82185	15.81	0
1	82742	15.91	0
1	83307	16.01	0
1	83864	16.11	0
1	84421	16.21	0
1	84978	16.31	0
1	85535	16.41	0
1	86092	16.51	0
1	86649	16.61	0
1	87206	16.71	0
1	87763	16.81	0
1	88320	16.91	0
1	88885	17.01	0
1	89442	17.11	0
1	89999	17.21	0
1	90556	17.31	0
1	91113	17.41	0
1	91670	17.51	0
1	92227	17.61	0
1	92784	17.71	0
1	93341	17.81	0
1	93898	17.91	0
1	94463	18.01	0
1	95020	18.11	0
1	95577	18.21	0
1	96134	18.31	0
1	96691	18.41	0
1	97248	18.51	0
1	97805	18.61	0
1	98362	18.71	0
1	98919	18.81	0
1	99476	18.91	0
1	100041	19.01	0
1	100598	19.11	0
1	101155	19.21	0
1	101712	19.31	0
1	102269	19.41	0
1	102826	19.51	0
1	103383	19.61	0
1	103940	19.71	0
1	104497	19.81	0
1	105054	19.91	0
1	105619	20.01	0
1	106176	20.11	0
1	106733	20.21	0
1	107290	20.31	0
1	107847	20.41	0
1	108404	20.51	0
1	108961	20.61	0
1	109518	20.71	0
1	110075	20.81	0
1	110632	20.91	0
1	111197	21.01	0
1	111754	21.11	0
1	112311	21.21	0
1	112868	21.31	0
1	113425	21.41	0
1	113982	21.51	0
1	114539	21.61	0
1	115096	21.71	0
1	115653	21.81	0
1	116210	21.91	0
1	116775	22.01	0
1	117332	22.11	0
1	117889	22.21	0
1	118446	22.31	0
1	119003	22.41	0
1	119560	22.51	0
1	120117	22.61	0
1	120674	22.71	0
1	121231	22.81	0
1	121788	22.91	0
1	122353	23.01	0
1	122910	23.11	0
1	123467	23.21	0
1	124024	23.31	0
1	124581	23.41	0
1	125138	23.51	0
1	125695	23.61	0
1	126252	23.71	0
1	126809	23.81	0
1	127366	23.91	0
1	127931	24.01	0
1	128488	24.11	0
1	129045	24.21	0
1	129602	24.31	0
1	130159	24.41	0
1	130716	24.51	0
1	131273	24.61	0
1	131830	24.71	0
1	132387	24.81	0
1	132944	24.91	0
1	133509	25.01	0
1	134066	25.11	0
1	134623	25.21	0
1	135180	25.31	0
1	135737	25.41	0
1	136294	25.51	0
1	136851	25.61	0
1	137408	25.71	0
1	137965	25.81	0
1	138522	25.91	0
1	139087	26.01	0
1	139644	26.11	0
1	140201	26.21	0
1	140758	26.31	0
1	141315	26.41	0
1	141872	26.51	0
1	142429	26.61	0
1	142986	26.71	0
1	143543	26.81	0
1	144100	26.91	0
1	144665	27.01	0
1	145222	27.11	0
1	145779	27.21	0
1	146336	27.31	0
1	146893	27.41	0
1	147450	27.51	0
1	148007	27.61	0
1	148564	27.71	0
1	149121	27.81	0
1	149678	27.91	0
1	150243	28.01	0
1	150800	28.11	0
1	151357	28.21	0
1	151914	28.31	0
1	152471	28.41	0
1	153028	28.51	0
1	153585	28.61	0
1	154142	28.71	0
1	154699	28.81	0
1	155256	28.91	0
1	155821	29.01	0
1	156378	29.11	0
1	156935	29.21	0
1	157492	29.31	0
1	158049	29.41	0
1	158606	29.51	0
1	159163	29.61	0
1	159720	29.71	0
1	160277	29.81	0
1	160834	29.91	0
1	161399	30.01	0
1	161956	30.11	0
1	162513	30.21	0
1	163070	30.31	0
1	163627	30.41	0
1	164184	30.51	0
1	164741	30.61	0
1	165298	30.71	0
1	165855	30.81	0
1	166412	30.91	0
1	166977	31.01	0
1	167534	31.11	0
1	168091	31.21	0
1	168648	31.31	0
1	169205	31.41	0
1	169762	31.51	0
1	170319	31.61	0
1	170876	31.71	0
1	171433	31.81	0
1	171990	31.91	0
1	172555	32.01	0
1	173112	32.11	0
1	173669	32.21	0
1	174226	32.31	0
1	174783	32.41	0
1	175340	32.51	0
1	175897	32.61	0
1	176454	32.71	0
1	177011	32.81	0
1	177568	32.91	0
1	178133	33.01	0
1	178690	33.11	0
1	179247	33.21	0
1	179804	33.31	0
1	180361	33.41	0
1	180918	33.51	0
1	181475	33.61	0
1	182032	33.71	0
1	182589	33.81	0
1	183146	33.91	0
1	183711	34.01	0
1	184268	34.11	0
1	184825	34.21	0
1	185382	34.31	0
1	185939	34.41	0
1	186496	34.51	0
1	187053	34.61	0
1	187610	34.71	0
1	188167	34.81	0
1	188724	34.91	0
1	189289	35.01	0
1	189846	35.11	0
1	190403	35.21	0
0	232	1.11	-1
0	788	1.21	-1
0	1344	1.31	-1
0	1900	1.41	-1
0	2456	1.51	-1
0	3012	1.61	-1
0	3568	1.71	-1
0	4124	1.81	-1
0	4680	1.91	-1
0	5244	2.01	-1
0	5800	2.11	-1
0	6356	2.21	-1
0	6912	2.31	-1
0	7468	2.41	-1
0	8024	2.51	-1
0	8580	2.61	-1
0	9136	2.71	-1
0	9692	2.81	-1
0	10248	2.91	-1
0	10812	3.01	-1
0	11368	3.11	-1
0	11924	3.21	-1
0	12480	3.31	-1
0	13036	3.41	-1
0	13592	3.51	-1
0	14148	3.61	-1
0	14704	3.71	-1
0	15260	3.81	-1
0	15816	3.91	-1
0	16380	4.01	-1
0	16936	4.11	-1
0	17492	4.21	-1
0	18048	4.31	-1
0	18604	4.41	-1
0	19160	4.51	-1
0	19716	4.61	-1
0	20272	4.71	-1
0	20828	4.81	-1
0	21384	4.91	-1
0	21949	5.01	-1
0	22506	5.11	-1
0	23063	5.21	-1
0	23620	5.31	-1
0	24177	5.41	-1
0	24734	5.51	-1
0	25291	5.61	-1
0	25848	5.71	-1
0	26405	5.81	-1
0	26962	5.91	-1
0	27527	6.01	-1
0	28084	6.11	-1
0	28641	6.21	-1
0	29198	6.31	-1
0	29755	6.41	-1
0	30312	6.51	-1
0	30869	6.61	-1
0	31426	6.71	-1
0	31983	6.81	-1
0	32540	6.91	-1
0	33105	7.01	-1
0	33662	7.11	-1
0	34219	7.21	-1
0	34776	7.31	-1
0	35333	7.41	-1
0	35890	7.51	-1
0	36447	7.61	-1
0	37004	7.71	-1
0	37561	7.81	-1
0	38118	7.91	-1
0	38683	8.01	-1
0	39240	8.11	-1
0	39797	8.21	-1
0	40354	8.31	-1
0	40911	8.41	-1
0	41468	8.51	-1
0	42025	8.61	-1
0	42582	8.71	-1
0	43139	8.81	-1
0	43696	8.91	-1
0	44261	9.01	-1
0	44818	9.11	-1
0	45375	9.21	-1
0	45932	9.31	-1
0	46489	9.41	-1
0	47046	9.51	-1
0	47603	9.61	-1
0	48160	9.71	-1
0	48717	9.81	-1
0	49274	9.91	-1
0	49839	10.01	-1
0	50396	10.11	-1
0	50953	10.21	-1
0	51510	10.31	-1
0	52067	10.41	-1
0	52624	10.51	-1
0	53181	10.61	-1
0	53738	10.71	-1
0	54295	10.81	-1
0	54852	10.91	-1
0	55417	11.01	-1
0	55974	11.11	-1
0	56531	11.21	-1
0	57088	11.31	-1
0	57645	11.41	-1
0	58202	11.51	-1
0	58759	11.61	-1
0	59316	11.71	-1
0	59873	11.81	-1
0	60430	11.91	-1
0	60995	12.01	-1
0	61552	12.11	-1
0	62109	12.21	-1
0	62666	12.31	-1
0	63223	12.41	-1
0	63780	12.51	-1
0	64337	12.61	-1
0	64894	12.71	-1
0	65451	12.81	-1
0	66008	12.91	-1
0	66573	13.01	-1
0	67130	13.11	-1
0	67687	13.21	-1
0	68244	13.31	-1
0	68801	13.41	-1
0	69358	13.51	-1
0	69915	13.61	-1
0	70472	13.71	-1
0	71029	13.81	-1
0	71586	13.91	-1
0	72151	14.01	-1
0	72708	14.11	-1
0	73265	14.21	-1
0	73822	14.31	-1
0	74379	14.41	-1
0	74936	14.51	-1
0	75493	14.61	-1
0	76050	14.71	-1
0	76607	14.81	-1
0	77164	14.91	-1
0	77729	15.01	-1
0	78286	15.11	-1
0	78843	15.21	-1
0	79400	15.31	-1
0	79957	15.41	-1
0	80514	15.51	-1
0	81071	15.61	-1
0	81628	15.71	-1
0	82185	15.81	-1
0	82742	15.91	-1
0	83307	16.01	-1
0	83864	16.11	-1
0	84421	16.21	-1
0	84978	16.31	-1
0	85535	16.41	-1
0	86092	16.51	-1
0	86649	16.61	-1
0	87206	16.71	-1
0	87763	16.81	-1
0	88320	16.91	-1
0	88885	17.01	-1
0	89442	17.11	-1
0	89999	17.21	-1
0	90556	17.31	-1
0	91113	17.41	-1
0	91670	17.51	-1
0	92227	17.61	-1
0	92784	17.71	-1
0	93341	17.81	-1
0	93898	17.91	-1
0	94463	18.01	-1
0	95020	18.11	-1
0	95577	18.21	-1
0	96134	18.31	-1
0	96691	18.41	-1
0	97248	18.51	-1
0	97805	18.61	-1
0	98362	18.71	-1
0	98919	18.81	-1
0	99476	18.91	-1
0	100041	19.01	-1
0	100598	19.11	-1
0	101155	19.21	-1
0	101712	19.31	-1
0	102269	19.41	-1
0	102826	19.51	-1
0	103383	19.61	-1
0	103940	19.71	-1
0	104497	19.81	-1
0	105054	19.91	-1
0	105619	20.01	-1
0	106176	20.11	-1
0	106733	20.21	-1
0	107290	20.31	-1
0	107847	20.41	-1
0	108404	20.51	-1
0	108961	20.61	-1
0	109518	20.71	-1
0	110075	20.81	-1
0	110632	20.91	-1
0	111197	21.01	-1
0	111754	21.11	-1
0	112311	21.21	-1
0	112868	21.31	-1
0	113425	21.41	-1
0	113982	21.51	-1
0	114539	21.61	-1
0	115096	21.71	-1
0	115653	21.81	-1
0	116210	21.91	-1
0	116775	22.01	-1
0	117332	22.11	-1
0	117889	22.21	-1
0	118446	22.31	-1
0	119003	22.41	-1
0	119560	22.51	-1
0	120117	22.61	-1
0	120674	22.71	-1
0	121231	22.81	-1
0	121788	22.91	-1
0	122353	23.01	-1
0	122910	23.11	-1
0	123467	23.21	-1
0	124024	23.31	-1
0	124581	23.41	-1
0	125138	23.51	-1
0	125695	23.61	-1
0	126252	23.71	-1
0	126809	23.81	-1
0	127366	23.91	-1
0	127931	24.01	-1
0	128488	24.11	-1
0	129045	24.21	-1
0	129602	24.31	-1
0	130159	24.41	-1
0	130716	24.51	-1
0	131273	24.61	-1
0	131830	24.71	-1
0	132387	24.81	-1
0	132944	24.91	-1
0	133509	25.01	-1
0	134066	25.11	-1
0	134623	25.21	-1
0	135180	25.31	-1
0	135737	25.41	-1
0	136294	25.51	-1
0	136851	25.61	-1
0	137408	25.71	-1
0	137965	25.81	-1
0	138522	25.91	-1
0	139087	26.01	-1
0	139644	26.11	-1
0	140201	26.21	-1
0	140758	26.31	-1
0	141315	26.41	-1
0	141872	26.51	-1
0	142429	26.61	-1
0	142986	26.71	-1
0	143543	26.81	-1
0	144100	26.91	-1
0	144665	27.01	-1
0	145222	27.11	-1
0	145779	27.21	-1
0	146336	27.31	-1
0	146893	27.41	-1
0	147450	27.51	-1
0	148007	27.61	-1
0	148564	27.71	-1
0	149121	27.81	-1
0	149678	27.91	-1
0	150243	28.01	-1
0	150800	28.11	-1
0	151357	28.21	-1
0	151914	28.31	-1
0	152471	28.41	-1
0	153028	28.51	-1
0	153585	28.61	-1
0	154142	28.71	-1
0	154699	28.81	-1
0	155256	28.91	-1
0	155821	29.01	-1
0	156378	29.11	-1
0	156935	29.21	-1
0	157492	29.31	-1
0	158049	29.41	-1
0	158606	29.51	-1
0	159163	29.61	-1
0	159720	29.71	-1
0	160277	29.81	-1
0	160834	29.91	-1
0	161399	30.01	-1
0	161956	30.11	-1
0	162513	30.21	-1
0	163070	30.31	-1
0	163627	30.41	-1
0	164184	30.51	-1
0	164741	30.61	-1
0	165298	30.71	-1
0	165855	30.81	-1
0	166412	30.91	-1
0	166977	31.01	-1
0	167534	31.11	-1
0	168091	31.21	-1
0	168648	31.31	-1
0	169205	31.41	-1
0	169762	31.51	-1
0	170319	31.61	-1
0	170876	31.71	-1
0	171433	31.81	-1
0	171990	31.91	-1
0	172555	32.01	-1
0	173112	32.11	-1
0	173669	32.21	-1
0	174226	32.31	-1
0	174783	32.41	-1
0	175340	32.51	-1
0	175897	32.61	-1
0	176454	32.71	-1
0	177011	32.81	-1
0	177568	32.91	-1
0	178133	33.01	-1
0	178690	33.11	-1
0	179247	33.21	-1
0	179804	33.31	-1
0	180361	33.41	-1
0	180918	33.51	-1
0	181475	33.61	-1
0	182032	33.71	-1
0	182589	33.81	-1
0	183146	33.91	-1
0	183711	34.01	-1
0	184268	34.11	-1
0	184825	34.21	-1
0	185382	34.31	-1
0	185939	34.41	-1
0	186496	34.51	-1
0	187053	34.61	-1
0	187610	34.71	-1
0	188167	34.81	-1
0	188724	34.91	-1
0	189289	35.01	-1
0	189846	35.11	-1
0	190403	35.21	-1
2	232	1.11	0
2	788	1.21	0
2	1344	1.31	0
2	1900	1.41	0
2	2456	1.51	0
2	3012	1.61	0
2	3568	1.71	0
2	4124	1.81	0
2	4680	1.91	0
2	5244	2.01	0
2	5800	2.11	0
2	6356	2.21	0
2	6912	2.31	0
2	7468	2.41	0
2	8024	2.51	0
2	8580	2.61	0
2	9136	2.71	0
2	9692	2.81	0
2	10248	2.91	0
2	10812	3.01	0
2	11368	3.11	0
2	11924	3.21	0
2	12480	3.31	0
2	13036	3.41	0
2	13592	3.51	0
2	14148	3.61	0
2	14704	3.71	0
2	15260	3.81	0
2	15816	3.91	0
2	16380	4.01	0
2	16936	4.11	0
2	17492	4.21	0
2	18048	4.31	0
2	18604	4.41	0
2	19160	4.51	0
2	19716	4.61	0
2	20272	4.71	0
2	20828	4.81	0
2	21384	4.91	0
2	21949	5.01	0
2	22506	5.11	0
2	23063	5.21	0
2	23620	5.31	0
2	24177	5.41	0
2	24734	5.51	0
2	25291	5.61	0
2	25848	5.71	0
2	26405	5.81	0
2	26962	5.91	0
2	27527	6.01	0
2	28084	6.11	0
2	28641	6.21	0
2	29198	6.31	0
2	29755	6.41	0
2	30312	6.51	0
2	30869	6.61	0
2	31426	6.71	0
2	31983	6.81	0
2	32540	6.91	0
2	33105	7.01	0
2	33662	7.11	0
2	34219	7.21	0
2	34776	7.31	0
2	35333	7.41	0
2	35890	7.51	0
2	36447	7.61	0
2	37004	7.71	0
2	37561	7.81	0
2	38118	7.91	0
2	38683	8.01	0
2	39240	8.11	0
2	39797	8.21	0
2	40354	8.31	0
2	40911	8.41	0
2	41468	8.51	0
2	42025	8.61	0
2	42582	8.71	0
2	43139	8.81	0
2	43696	8.91	0
2	44261	9.01	0
2	44818	9.11	0
2	45375	9.21	0
2	45932	9.31	0
2	46489	9.41	0
2	47046	9.51	0
2	47603	9.61	0
2	48160	9.71	0
2	48717	9.81	0
2	49274	9.91	0
2	49839	10.01	0
2	50396	10.11	0
2	50953	10.21	0
2	51510	10.31	0
2	52067	10.41	0
2	52624	10.51	0
2	53181	10.61	0
2	53738	10.71	0
2	54295	10.81	0
2	54852	10.91	0
2	55417	11.01	0
2	55974	11.11	0
2	56531	11.21	0
2	57088	11.31	0
2	57645	11.41	0
2	58202	11.51	0
2	58759	11.61	0
2	59316	11.71	0
2	59873	11.81	0
2	60430	11.91	0
2	60995	12.01	0
2	61552	12.11	0
2	62109	12.21	0
2	62666	12.31	0
2	63223	12.41	0
2	63780	12.51	0
2	64337	12.61	0
2	64894	12.71	0
2	65451	12.81	0
2	66008	12.91	0
2	66573	13.01	0
2	67130	13.11	0
2	67687	13.21	0
2	68244	13.31	0
2	68801	13.41	0
2	69358	13.51	0
2	69915	13.61	0
2	70472	13.71	0
2	71029	13.81	0
2	71586	13.91	0
2	72151	14.01	0
2	72708	14.11	0
2	73265	14.21	0
2	73822	14.31	0
2	74379	14.41	0
2	74936	14.51	0
2	75493	14.61	0
2	76050	14.71	0
2	76607	14.81	0
2	77164	14.91	0
2	77729	15.01	0
2	78286	15.11	0
2	78843	15.21	0
2	79400	15.31	0
2	79957	15.41	0
2	80514	15.51	0
2	81071	15.61	0
2	81628	15.71	0
2	82185	15.81	0
2	82742	15.91	0
2	83307	16.01	0
2	83864	16.11	0
2	84421	16.21	0
2	84978	16.31	0
2	85535	16.41	0
2	86092	16.51	0
2	86649	16.61	0
2	87206	16.71	0
2	87763	16.81	0
2	88320	16.91	0
2	88885	17.01	0
2	89442	17.11	0
2	89999	17.21	0
2	90556	17.31	0
2	91113	17.41	0
2	91670	17.51	0
2	92227	17.61	0
2	92784	17.71	0
2	93341	17.81	0
2	93898	17.91	0
2	94463	18.01	0
2	95020	18.11	0
2	95577	18.21	0
2	96134	18.31	0
2	96691	18.41	0
2	97248	18.51	0
2	97805	18.61	0
2	98362	18.71	0
2	98919	18.81	0
2	99476	18.91	0
2	100041	19.01	0
2	100598	19.11	0
2	101155	19.21	0
2	101712	19.31	0
2	102269	19.41	0
2	102826	19.51	0
2	103383	19.61	0
2	103940	19.71	0
2	104497	19.81	0
2	105054	19.91	0
2	105619	20.01	0
2	106176	20.11	0
2	106733	20.21	0
2	107290	20.31	0
2	107847	20.41	0
2	108404	20.51	0
2	108961	20.61	0
2	109518	20.71	0
2	110075	20.81	0
2	110632	20.91	0
2	111197	21.01	0
2	111754	21.11	0
2	112311	21.21	0
2	112868	21.31	0
2	113425	21.41	0
2	113982	21.51	0
2	114539	21.61	0
2	115096	21.71	0
2	115653	21.81	0
2	116210	21.91	0
2	116775	22.01	0
2	117332	22.11	0
2	117889	22.21	0
2	118446	22.31	0
2	119003	22.41	0
2	119560	22.51	0
2	120117	22.61	0
2	120674	22.71	0
2	121231	22.81	0
2	121788	22.91	0
2	122353	23.01	0
2	122910	23.11	0
2	123467	23.21	0
2	124024	23.31	0
2	124581	23.41	0
2	125138	23.51	0
2	125695	23.61	0
2	126252	23.71	0
2	126809	23.81	0
2	127366	23.91	0
2	127931	24.01	0
2	128488	24.11	0
2	129045	24.21	0
2	129602	24.31	0
2	130159	24.41	0
2	130716	24.51	0
2	131273	24.61	0
2	131830	24.71	0
2	132387	24.81	0
2	132944	24.91	0
2	133509	25.01	0
2	134066	25.11	0
2	134623	25.21	0
2	135180	25.31	0
2	135737	25.41	0
2	136294	25.51	0
2	136851	25.61	0
2	137408	25.71	0
2	137965	25.81	0
2	138522	25.91	0
2	139087	26.01	0
2	139644	26.11	0
2	140201	26.21	0
2	140758	26.31	0
2	141315	26.41	0
2	141872	26.51	0
2	142429	26.61	0
2	142986	26.71	0
2	143543	26.81	0
2	144100	26.91	0
2	144665	27.01	0
2	145222	27.11	0
2	145779	27.21	0
2	146336	27.31	0
2	146893	27.41	0
2	147450	27.51	0
2	148007	27.61	0
2	148564	27.71	0
2	149121	27.81	0
2	149678	27.91	0
2	150243	28.01	0
2	150800	28.11	0
2	151357	28.21	0
2	151914	28.31	0
2	152471	28.41	0
2	153028	28.51	0
2	153585	28.61	0
2	154142	28.71	0
2	154699	28.81	0
2	155256	28.91	0
2	155821	29.01	0
2	156378	29.11	0
2	156935	29.21	0
2	157492	29.31	0
2	158049	29.41	0
2	158606	29.51	0
2	159163	29.61	0
2	159720	29.71	0
2	160277	29.81	0
2	160834	29.91	0
2	161399	30.01	0
2	161956	30.11	0
2	162513	30.21	0
2	163070	30.31	0
2	163627	30.41	0
2	164184	30.51	0
2	164741	30.61	0
2	165298	30.71	0
2	165855	30.81	0
2	166412	30.91	0
2	166977	31.01	0
2	167534	31.11	0
2	168091	31.21	0
2	168648	31.31	0
2	169205	31.41	0
2	169762	31.51	0
2	170319	31.61	0
2	170876	31.71	0
2	171433	31.81	0
2	171990	31.91	0
2	172555	32.01	0
2	173112	32.11	0
2	173669	32.21	0
2	174226	32.31	0
2	174783	32.41	0
2	175340	32.51	0
2	175897	32.61	0
2	176454	32.71	0
2	177011	32.81	0
2	177568	32.91	0
2	178133	33.01	0
2	178690	33.11	0
2	179247	33.21	0
2	179804	33.31	0
2	180361	33.41	0
2	180918	33.51	0
2	181475	33.61	0
2	182032	33.71	0
2	182589	33.81	0
2	183146	33.91	0
2	183711	34.01	0
2	184268	34.11	0
2	184825	34.21	0
2	185382	34.31	0
2	185939	34.41	0
2	186496	34.51	0
2	187053	34.61	0
2	187610	34.71	0
2	188167	34.81	0
2	188724	34.91	0
2	189289	35.01	0
2	189846	35.11	0
2	190403	35.21	0
10	5056	2	0
10	10624	3	0
10	16192	4	0
10	21761	5	0
10	27338	6	0
10	32916	7	0
10	38494	8	0
10	44072	9	0
10	49650	10	0
10	55228	11	0
10	60806	12	0
10	66384	13	0
10	71962	14	0
10	77540	15	0
10	83118	16	0
10	88696	17	0
10	94274	18	0
10	99852	19	0
10	105430	20	0
10	111008	21	0
10	116586	22	0
10	122164	23	0
10	127742	24	0
10	133320	25	0
10	138898	26	0
10	144476	27	0
10	150054	28	0
10	155632	29	0
10	161210	30	0
10	166788	31	0
10	172366	32	0
10	177944	33	0
10	183522	34	0
10	189100	35	0
9	5056	2	0.022754155264
9	10624	3	0.0262491946
9	16192	4	0.0262621946
9	21761	5	0.0262491946
9	27338	6	0.026249193001
9	32916	7	0.026249178679
9	38494	8	0.026249162989
9	44072	9	0.026249169272
9	49650	10	0.026249187761
9	55228	11	0.026249199874
9	60806	12	0.026249189628
9	66384	13	0.026249173868
9	71962	14	0.02624917803
9	77540	15	0.02624919639
9	83118	16	0.026249206902
9	88696	17	0.026249195481
9	94274	18	0.026249178738
9	99852	19	0.026249181804
9	105430	20	0.026262199507
9	111008	21	0.026249209321
9	116586	22	0.026249197387
9	122164	23	0.026249180236
9	127742	24	0.02624918295
9	133320	25	0.026249200389
9	138898	26	0.026249209989
9	144476	27	0.026249197886
9	150054	28	0.026249180613
9	155632	29	0.026249183225
9	161210	30	0.026249200595
9	166788	31	0.026249207542
9	172366	32	0.026249171062
9	177944	33	0.026249120706
9	183522	34	0.026249169812
9	189100	35	0.026249420961
8	5056	2	0
8	10624	3	0
8	16192	4	0
8	21761	5	0
8	27338	6	0
8	32916	7	0
8	38494	8	0
8	44072	9	0
8	49650	10	0
8	55228	11	0
8	60806	12	0
8	66384	13	0
8	71962	14	0
8	77540	15	0
8	83118	16	0
8	88696	17	0
8	94274	18	0
8	99852	19	0
8	105430	20	0
8	111008	21	0
8	116586	22	0
8	122164	23	0
8	127742	24	0
8	133320	25	0
8	138898	26	0
8	144476	27	0
8	150054	28	0
8	155632	29	0
8	161210	30	0
8	166788	31	0
8	172366	32	0
8	177944	33	0
8	183522	34	0
8	189100	35	0
29	233	1.11	0
29	789	1.21	-1.2595825330664e-06
29	1345	1.31	-1.2296821986979e-06
29	1901	1.41	-1.1833527901217e-06
29	2457	1.51	-1.1244290357126e-06
29	3013	1.61	-1.0562717992002e-06
29	3569	1.71	-9.8179450276348e-07
29	4125	1.81	-9.0349265690293e-07
29	4681	1.91	-8.2347536078942e-07
29	5245	2.01	-7.4349812138053e-07
29	5801	2.11	-6.6499555629207e-07
29	6357	2.21	-5.8911422883057e-07
29	6913	2.31	-5.1674436321036e-07
29	7469	2.41	-4.4855053459969e-07
29	8025	2.51	-3.8500073628711e-07
29	8581	2.61	-3.2639379583088e-07
29	9137	2.71	-2.7288462348452e-07
29	9693	2.81	-2.2450767175997e-07
29	10249	2.91	-1.811982417621e-07
29	10813	3.01	-1.4281165960028e-07
29	11369	3.11	-1.0914041126853e-07
29	11925	3.21	-7.9929262710721e-08
29	12481	3.31	-5.4888551233034e-08
29	13037	3.41	-3.3705734665546e-08
29	13593	3.51	-1.6055104197221e-08
29	14149	3.61	-1.6061443375293e-09
29	14705	3.71	9.9696094935098e-09
29	15261	3.81	1.8992922719008e-08
29	15817	3.91	2.5772650360523e-08
29	16381	4.01	3.060227527385e-08
29	16937	4.11	3.3757162611892e-08
29	17493	4.21	3.5492990946295e-08
29	18049	4.31	3.6044690716608e-08
29	18605	4.41	3.5625927523597e-08
29	19161	4.51	3.4429085928878e-08
29	19717	4.61	3.2625725907565e-08
29	20273	4.71	3.0367125134489e-08
29	20829	4.81	2.7785252711965e-08
29	21385	4.91	2.4993813099172e-08
29	21950	5.01	2.2089479330134e-08
29	22507	5.11	1.9153315804488e-08
29	23064	5.21	0.34733991909581
29	23621	5.31	0.68310171749141
29	24178	5.41	0.99698687729695
29	24735	5.51	1.2801412035986
29	25292	5.61	1.5099382084721
29	25849	5.71	1.512687053667
29	26406	5.81	1.5149569038671
29	26963	5.91	1.5168232803019
29	27528	6.01	1.5183493628909
29	28085	6.11	1.519588478035
29	28642	6.21	1.5205856566525
29	29199	6.31	1.52137894171
29	29756	6.41	1.5220004861971
29	30313	6.51	1.5224774756982
29	30870	6.61	1.4326306668443
29	31427	6.71	1.1674154638744
29	31984	6.81	0.86641327937233
29	32541	6.91	0.53696346749048
29	33106	7.01	0.18665233220013
29	33663	7.11	-0.17681326016476
29	34220	7.21	-0.54572919469907
29	34777	7.31	-0.91251326906506
29	35334	7.41	-1.2698191061193
29	35891	7.51	-1.5007553564665
29	36448	7.61	-1.5047180630125
29	37005	7.71	-1.508032272892
29	37562	7.81	-1.5107991316987
29	38119	7.91	-1.5131038433636
29	38684	8.01	-1.5150182249665
29	39241	8.11	-1.5166028451828
29	39798	8.21	-1.5179088152982
29	40355	8.31	-1.518979290148
29	40912	8.41	-1.51985072673
29	41469	8.51	-1.5205539402619
29	42026	8.61	-1.5211149908295
29	42583	8.71	-1.5215559282606
29	43140	8.81	-1.5218954182838
29	43697	8.91	-1.5221492692185
29	44262	9.01	-1.5223308752715
29	44819	9.11	-1.5224515898759
29	45376	9.21	-1.522521040306
29	45933	9.31	-1.5225473929681
29	46490	9.41	-1.5225375772363
29	47047	9.51	-1.5224974620643
29	47604	9.61	-1.1130399560248
29	48161	9.71	-0.67818559921876
29	48718	9.81	-0.23540740172066
29	49275	9.91	0.20477975395964
29	49840	10.01	0.63265019210038
29	50397	10.11	1.0393363140656
29	50954	10.21	1.4168872068546
29	51511	10.31	1.5035670119661
29	52068	10.41	1.507522261995
29	52625	10.51	1.5108114787318
29	53182	10.61	1.5135389681027
29	53739	10.71	1.5157926267135
29	54296	10.81	1.5176465632533
29	54853	10.91	1.5191632940964
29	55418	11.01	1.5203955833765
29	55975	11.11	1.5213879860416
29	56532	11.21	1.5221781426242
29	57089	11.31	1.5227978663445
29	57646	11.41	1.5232740564134
29	58203	11.51	1.5236294657968
29	58760	11.61	1.5238833470277
29	59317	11.71	1.5240519957727
29	59874	11.81	1.5241492086194
29	60431	11.91	1.4626999804168
29	60996	12.01	1.080537134412
29	61553	12.11	0.67496466019722
29	62110	12.21	0.25628399047118
29	62667	12.31	-0.16565488529208
29	63224	12.41	-0.5815487593405
29	63781	12.51	-0.98272796761646
[...]
101	110141	20.869566000584	0.100011779197
101	110698	20.969564779892	0.099998779308
101	111263	21.069563559329	0.099998779437
101	111820	21.169562338905	0.099998779576
101	112377	21.269561118629	0.099998779724
101	112934	21.369559898511	0.099998779882
101	113491	21.469558678562	0.099998780051
101	114048	21.569557458788	0.099998780226
101	114605	21.669556239198	0.09999878041
101	115162	21.769555019798	0.0999987806
101	115719	21.869566800598	0.1000117808
101	116276	21.969565581601	0.099998781003
101	116841	22.069564362815	0.099998781214
101	117398	22.169563144237	0.099998781422
101	117955	22.269561925861	0.099998781624
101	118512	22.36956070767	0.099998781809
101	119069	22.469559489643	0.099998781973
101	119626	22.569558271751	0.099998782108
101	120183	22.669557053957	0.099998782206
101	120740	22.769555836226	0.099998782269
101	121297	22.869554618521	0.099998782295
101	121854	22.969566400808	0.100011782287
101	122419	23.069565183059	0.099998782251
101	122976	23.169563965246	0.099998782187
101	123533	23.269562747352	0.099998782106
101	124090	23.369561529355	0.099998782003
101	124647	23.469560311243	0.099998781888
101	125204	23.569559093	0.099998781757
101	125761	23.669557874617	0.099998781617
101	126318	23.769556656082	0.099998781465
101	126875	23.869555437385	0.099998781303
101	127432	23.969554218517	0.099998781132
101	127997	24.069565999471	0.100011780954
101	128554	24.169564780238	0.099998780767
101	129111	24.269563560812	0.099998780574
101	129668	24.369562341185	0.099998780373
101	130225	24.469561121352	0.099998780167
101	130782	24.569559901305	0.099998779953
101	131339	24.669558681049	0.099998779744
101	131896	24.769557460589	0.09999877954
101	132453	24.869556239939	0.09999877935
101	133010	24.969555019125	0.099998779186
101	133575	25.069566798175	0.10001177905
101	134132	25.169565577123	0.099998778948
101	134689	25.269564356006	0.099998778883
101	135246	25.369563134861	0.099998778855
101	135803	25.469561913721	0.09999877886
101	136360	25.569560692615	0.099998778894
101	136917	25.66955947157	0.099998778955
101	137474	25.769558250607	0.099998779037
101	138031	25.869557029744	0.099998779137
101	138588	25.969555808995	0.099998779251
101	139153	26.069554588373	0.099998779378
101	139710	26.169566367893	0.10001177952
101	140267	26.269565147563	0.09999877967
101	140824	26.369563927392	0.099998779829
101	141381	26.469562707391	0.099998779999
101	141938	26.569561487567	0.099998780176
101	142495	26.669560267928	0.099998780361
101	143052	26.769559048483	0.099998780555
101	143609	26.869557829238	0.099998780755
101	144166	26.969556610197	0.099998780959
101	144731	27.069555391367	0.09999878117
101	145288	27.169554172747	0.09999878138
101	145845	27.26956595433	0.100011781583
101	146402	27.369564736099	0.099998781769
101	146959	27.469563518033	0.099998781934
101	147516	27.569562300102	0.099998782069
101	148073	27.669561082272	0.09999878217
101	148630	27.769559864505	0.099998782233
101	149187	27.869558646765	0.09999878226
101	149744	27.969557429019	0.099998782254
101	150309	28.069556211236	0.099998782217
101	150866	28.169554993392	0.099998782156
101	151423	28.269566775466	0.100011782074
101	151980	28.369565557441	0.099998781975
101	152537	28.469564339299	0.099998781858
101	153094	28.569563121031	0.099998781732
101	153651	28.669561902621	0.09999878159
101	154208	28.769560684059	0.099998781438
101	154765	28.869559465337	0.099998781278
101	155322	28.969558246446	0.099998781109
101	155887	29.069557027375	0.099998780929
101	156444	29.16955580812	0.099998780745
101	157001	29.269554588671	0.099998780551
101	157558	29.369566369021	0.10001178035
101	158115	29.469565149164	0.099998780143
101	158672	29.569563929098	0.099998779934
101	159229	29.66956270882	0.099998779722
101	159786	29.769561488341	0.099998779521
101	160343	29.869560267673	0.099998779332
101	160900	29.969559046842	0.099998779169
101	161465	30.069557825875	0.099998779033
101	162022	30.169556604808	0.099998778933
101	162579	30.269555383686	0.099998778878
101	163136	30.369554162557	0.099998778871
101	163693	30.469565941475	0.100011778918
101	164250	30.5695647205	0.099998779025
101	164807	30.669563499687	0.099998779187
101	165364	30.769562279091	0.099998779404
101	165921	30.869561058768	0.099998779677
101	166478	30.969559838772	0.099998780004
101	167043	31.069558619148	0.099998780376
101	167600	31.169557399947	0.099998780799
101	168157	31.269556181203	0.099998781256
101	168714	31.369554962959	0.099998781756
101	169271	31.469566745246	0.100011782287
101	169828	31.569565528088	0.099998782842
101	170385	31.669564311508	0.09999878342
101	170942	31.769563095527	0.099998784019
101	171499	31.869561880151	0.099998784624
101	172056	31.969560665384	0.099998785233
101	172621	32.069559451228	0.099998785844
101	173178	32.169558237667	0.099998786439
101	173735	32.269557024679	0.099998787012
101	174292	32.369555812218	0.099998787539
101	174849	32.46955460022	0.099998788002
101	175406	32.569566388603	0.100011788383
101	175963	32.66956517726	0.099998788657
101	176520	32.769563966065	0.099998788805
101	177077	32.869562754875	0.09999878881
101	177634	32.969561543529	0.099998788654
101	178199	33.069560331852	0.099998788323
101	178756	33.169559119663	0.099998787811
101	179313	33.269557906768	0.099998787105
101	179870	33.369556692967	0.099998786199
101	180427	33.469555478056	0.099998785089
101	180984	33.569554261822	0.099998783766
101	181541	33.669566044052	0.10001178223
101	182098	33.769564824525	0.099998780473
101	182655	33.869563603024	0.099998778499
101	183212	33.969562379325	0.099998776301
101	183777	34.069561153206	0.099998773881
101	184334	34.169559924439	0.099998771233
101	184891	34.269558692803	0.099998768364
101	185448	34.36955745807	0.099998765267
101	186005	34.469556220017	0.099998761947
101	186562	34.569554978422	0.099998758405
101	187119	34.669566733067	0.100011754645
101	187676	34.769565483745	0.099998750678
101	188233	34.869564230264	0.099998746519
101	188790	34.969562972446	0.099998742182
101	189355	35.069561710124	0.099998737678
101	189912	35.169560443159	0.099998733035
101	190469	35.269559171422	0.099998728263
102	1312	1.306028501039	0.09993378054
102	1868	1.406105281579	0.10007678054
102	2424	1.506091062119	0.09998578054
102	2980	1.606063842659	0.09997278054
102	3536	1.706075623199	0.10001178054
102	4092	1.806087403739	0.10001178054
102	4648	1.906073184279	0.09998578054
102	5212	2.006019964819	0.09994678054
102	5768	2.106083745359	0.10006378054
102	6324	2.206030525899	0.09994678054
102	6880	2.306107306439	0.10007678054
102	7436	2.406080086979	0.09997278054
102	7992	2.506039867519	0.09995978054
102	8548	2.606090648059	0.10005078054
102	9104	2.706011428599	0.09992078054
102	9660	2.806036209139	0.10002478054
102	10216	2.906099989679	0.10006378054
102	10780	3.006072770219	0.09997278054
102	11336	3.106006550759	0.09993378054
102	11892	3.206057331299	0.10005078054
102	12448	3.306056111839	0.09999878054
102	13004	3.406015892379	0.09995978054
102	13560	3.506105672919	0.10008978054
102	14116	3.606052453459	0.09994678054
102	14672	3.706090233999	0.10003778054
102	15228	3.806063014539	0.09997278054
102	15784	3.906035795079	0.09997278054
102	16348	4.006021575619	0.09998578054
102	16904	4.106033356159	0.10001178054
102	17460	4.206006136699	0.09997278054
102	18016	4.306095917239	0.10008978054
102	18572	4.406016697779	0.09992078054
102	19128	4.506080478319	0.10006378054
102	19684	4.606066258859	0.09998578054
102	20240	4.706078039399	0.10001178054
102	20796	4.806063819939	0.09998578054
102	21352	4.906101600479	0.10003778054
102	21917	5.006022381019	0.09992078054
102	22474	5.106086161559	0.10006378054
102	23031	5.2060719421	0.099985780541
102	23588	5.306057722643	0.099985780543
102	24139	5.406017503198	0.099959780555
102	24696	5.506081283783	0.100063780585
102	25253	5.606067064419	0.099985780636
102	25810	5.706013845128	0.099946780709
102	26367	5.80605162594	0.100037780812
102	26924	5.906037406874	0.099985780934
102	27489	6.006023187951	0.099985781077
102	28046	6.106008969187	0.099985781236
102	28603	6.206059750597	0.10005078141
102	29160	6.306071532192	0.100011781595
102	29717	6.406096313983	0.100024781791
102	30274	6.506043095981	0.099946781998
102	30831	6.606093878192	0.100050782211
102	31388	6.706066660626	0.099972782434
102	31945	6.806065443285	0.099998782659
102	32502	6.906077226167	0.100011782882
102	33067	7.006076009264	0.099998783097
102	33624	7.106035792559	0.099959783295
102	34181	7.206021576033	0.099985783474
102	34738	7.30600735966	0.099985783627
102	35295	7.406019143408	0.100011783748
102	35852	7.506030927243	0.100011783835
102	36409	7.606042711128	0.100011783885
102	36966	7.706106495029	0.100063783901
102	37523	7.806092278914	0.099985783885
102	38080	7.906091062758	0.099998783844
102	38645	8.006063846537	0.099972783779
102	39202	8.106010630231	0.099946783694
102	39759	8.206022413826	0.100011783595
102	40316	8.306047197305	0.100024783479
102	40873	8.406045980656	0.099998783351
102	41430	8.506018763868	0.099972783212
102	41987	8.606082546931	0.100063783063
102	42544	8.706081329834	0.099998782903
102	43101	8.806080112569	0.099998782735
102	43658	8.906091895126	0.100011782557
102	44223	9.006038677498	0.099946782372
102	44780	9.106063459679	0.100024782181
102	45337	9.206062241661	0.099998781982
102	45900	9.306009023437	0.099946781776
102	46457	9.406046805001	0.100037781564
102	47014	9.506019586346	0.099972781345
102	47571	9.606083367465	0.100063781119
102	48128	9.706056148358	0.099972780893
102	48685	9.806041929029	0.099985780671
102	49242	9.906027709491	0.099985780462
102	49807	10.006013489767	0.099985780276
102	50364	10.106077269887	0.10006378012
102	50921	10.206037049885	0.099959779998
102	51478	10.306074829799	0.100037779914
102	52035	10.406034609668	0.099959779869
102	52592	10.506098389529	0.100063779861
102	53149	10.606019169413	0.099920779884
102	53706	10.706095949344	0.100076779931
102	54263	10.806016729344	0.09992078
102	54820	10.906093509433	0.100076780089
102	55385	11.006079289627	0.099985780194
102	55942	11.10607806994	0.099998780313
102	56499	11.206024850384	0.099946780444
102	57056	11.306036630968	0.100011780584
102	57613	11.406074411706	0.100037780738
102	58170	11.506021192606	0.0999467809
102	58727	11.606019973675	0.099998781069
102	59284	11.706070754922	0.100050781247
102	59841	11.806017536354	0.099946781432
102	60392	11.90605531798	0.100037781626
102	60957	12.006093099805	0.100037781825
102	61514	12.106078881834	0.099985782029
102	62071	12.206103664056	0.100024782222
102	62628	12.306089446462	0.099985782406
102	63185	12.406036229029	0.099946782567
102	63742	12.506022011733	0.099985782704
102	64299	12.606059794537	0.100037782804
102	64856	12.706045577407	0.09998578287
102	65413	12.806096360305	0.100050782898
102	65970	12.906043143194	0.099946782889
102	66535	13.006067926044	0.10002478285
102	67092	13.106066708828	0.099998782784
102	67649	13.206039491525	0.099972782697
102	68206	13.306090274117	0.100050782592
102	68763	13.406024056588	0.099933782471
102	69320	13.506009838924	0.099985782336
102	69877	13.606021621112	0.100011782188
102	70434	13.706059403142	0.10003778203
102	70991	13.806019185003	0.099959781861
102	71554	13.906056966687	0.100037781684
102	72119	14.006042748186	0.099985781499
102	72676	14.106080529492	0.100037781306
102	73233	14.206092310598	0.100011781106
102	73790	14.306039091496	0.099946780898
102	74347	14.406024872182	0.099985780686
102	74904	14.506036652646	0.100011780464
102	75461	14.606035432886	0.09999878024
102	76018	14.706060212907	0.100024780021
102	76575	14.806006992718	0.099946779811
102	77132	14.906083772335	0.100076779617
102	77697	15.006069551789	0.099985779454
102	78254	15.106042331108	0.099972779319
102	78811	15.206028110331	0.099985779223
102	79368	15.306104889496	0.100076779165
102	79925	15.406090668642	0.099985779146
102	80482	15.506089447801	0.099998779159
102	81039	15.606062227001	0.0999727792
102	81596	15.706022006264	0.099959779263
102	82153	15.806007785609	0.099985779345
102	82710	15.906019565056	0.100011779447
102	83275	16.006031344619	0.100011779563
102	83832	16.106017124311	0.099985779692
102	84389	16.206015904144	0.099998779833
102	84946	16.306053684127	0.100037779983
102	85503	16.406013464269	0.099959780142
102	86060	16.506012244583	0.099998780314
102	86617	16.606024025072	0.100011780489
102	87174	16.706009805748	0.099985780676
102	87731	16.806060586618	0.10005078087
102	88282	16.906007367687	0.099946781069
102	88847	17.006019148962	0.100011781275
102	89404	17.106030930445	0.100011781483
102	89961	17.206107712137	0.100076781692
102	90518	17.306106494023	0.099998781886
102	91075	17.406079276084	0.099972782061
102	91632	17.506052058295	0.099972782211
102	92189	17.606050840621	0.099998782326
102	92746	17.706010623028	0.099959782407
102	93303	17.806035405476	0.100024782448
102	93860	17.906060187929	0.100024782453
102	94425	18.006032970354	0.099972782425
102	94982	18.106018752725	0.099985782371
102	95539	18.20610853502	0.100089782295
102	96096	18.306042317219	0.099933782199
102	96653	18.406028099305	0.099985782086
102	97210	18.506052881264	0.100024781959
102	97767	18.606051663083	0.099998781819
102	98324	18.70602444475	0.099972781667
102	98881	18.806088226257	0.100063781507
102	99438	18.906022007595	0.099933781338
102	100009	19.006059788751	0.100037781156
102	100566	19.106084569723	0.100024780972
102	101123	19.206070350498	0.099985780775
102	101680	19.306069131074	0.099998780576
102	102237	19.406093911439	0.100024780365
102	102794	19.506014691592	0.099920780153
102	103351	19.606013471524	0.099998779932
102	103908	19.706012251243	0.099998779719
102	104465	19.806089030759	0.100076779516
102	105022	19.906022810091	0.099933779332
102	105587	20.006047589264	0.100024779173
102	106144	20.106033368315	0.099985779051
102	106701	20.206058147276	0.100024778961
102	107258	20.306069926186	0.10001177891
102	107815	20.406068705084	0.099998778898
102	108372	20.506080484001	0.100011778917
102	108929	20.606105262964	0.100024778963
102	109486	20.706065041997	0.099959779033
102	110043	20.80607682112	0.100011779123
102	110600	20.906062600348	0.099985779228
102	111165	21.006022379698	0.09995977935
102	111722	21.106086159183	0.100063779485
102	112279	21.206097938812	0.100011779629
102	112836	21.306096718595	0.099998779783
102	113393	21.406043498546	0.099946779951
102	113950	21.506081278669	0.100037780123
102	114507	21.606028058973	0.099946780304
102	115064	21.706065839467	0.100037780494
102	115615	21.806090620158	0.100024780691
102	116172	21.906037401051	0.099946780893
102	116737	22.006010182156	0.099972781105
102	117294	22.106086963473	0.100076781317
102	117851	22.206085745001	0.099998781528
102	118408	22.306058526728	0.099972781727
102	118965	22.406096308634	0.100037781906
102	119522	22.506017090695	0.099920782061
102	120079	22.606067872876	0.100050782181
102	120636	22.70609265514	0.100024782264
102	121193	22.80610443745	0.10001178231
102	121750	22.906025219769	0.099920782319
102	122315	23.006050002066	0.100024782297
102	122872	23.10602278431	0.099972782244
102	123429	23.206073566481	0.100050782171
102	123986	23.306085348559	0.100011782078
102	124543	23.406071130528	0.099985781969
102	125100	23.506069912372	0.099998781844
102	125657	23.606068694079	0.099998781707
102	126214	23.706041475638	0.099972781559
102	126771	23.80604025704	0.099998781402
102	127328	23.906091038274	0.100050781234
102	127893	24.006050819331	0.099959781057
102	128456	24.106049600203	0.099998780872
102	129013	24.206061380883	0.10001178068
102	129570	24.306034161365	0.099972780482
102	130127	24.406084941642	0.100050780277
102	130684	24.506083721705	0.099998780063
102	131241	24.606095501553	0.100011779848
102	131798	24.706055281189	0.099959779636
102	132355	24.806067060622	0.100011779433
102	132912	24.906091839874	0.100024779252
102	133477	25.006077618971	0.099985779097
102	134034	25.106011397945	0.099933778974
102	134591	25.206036176833	0.100024778888
102	135148	25.306073955672	0.100037778839
102	135705	25.4060597345	0.099985778828
102	136262	25.506006513349	0.099946778849
102	136819	25.606083292247	0.100076778898
102	137376	25.706056071217	0.09997277897
102	137933	25.80604185028	0.099985779063
102	138490	25.906105629451	0.100063779171
102	139055	26.006091408743	0.099985779292
102	139612	26.106077188171	0.099985779428
102	140169	26.206010967746	0.099933779575
102	140726	26.306022747478	0.100011779732
102	141283	26.406073527375	0.100050779897
102	141840	26.506085307448	0.100011780073
102	142397	26.606019087704	0.099933780256
102	142948	26.706095868152	0.100076780448
102	143505	26.806029648798	0.099933780646
102	144062	26.906080429647	0.100050780849
102	144627	27.006027210708	0.099946781061
102	145184	27.106103991983	0.100076781275
102	145741	27.206024773471	0.099920781488
102	146298	27.306062555157	0.100037781686
102	146855	27.406022337025	0.099959781868
102	147412	27.506073119047	0.100050782022
102	147969	27.606058901191	0.099985782144
102	148526	27.70609668342	0.100037782229
102	149083	27.806017465695	0.099920782275
102	149640	27.90606824798	0.100050782285
102	150205	28.006106030243	0.100037782263
102	150762	28.106104812457	0.099998782214
102	151319	28.206012594596	0.099907782139
102	151876	28.306076376645	0.100063782049
102	152433	28.406075158585	0.09999878194
102	152990	28.506099940403	0.100024781818
102	153547	28.606072722084	0.099972781681
102	154104	28.706006503617	0.099933781533
102	154661	28.806031284993	0.100024781376
102	155218	28.906095066203	0.10006378121
102	155783	29.006067847235	0.099972781032
102	156340	29.106066628085	0.09999878085
102	156903	29.206052408744	0.099985780659
102	157460	29.306012189203	0.099959780459
102	158017	29.406062969456	0.100050780253
102	158574	29.506048749499	0.099985780043
102	159131	29.606021529326	0.099972779827
102	159688	29.706020308941	0.099998779615
102	160245	29.806006088357	0.099985779416
102	160802	29.906030867591	0.100024779234
102	161367	30.006107646671	0.10007677908
102	161924	30.10601542563	0.099907778959
102	162481	30.206079204509	0.100063778879
102	163038	30.306103983362	0.100024778853
102	163595	30.406063762244	0.099959778882
102	164152	30.506036541216	0.099972778972
102	164709	30.606022320339	0.099985779123
102	165266	30.706047099671	0.100024779332
102	165823	30.806006879267	0.099959779596
102	166380	30.906070659183	0.100063779916
102	166945	31.006069439467	0.099998780284
102	167502	31.106029220169	0.099959780702
102	168059	31.206080001327	0.100050781158
102	168616	31.306065782981	0.099985781654
102	169173	31.406025565163	0.099959782182
102	169730	31.5060893479	0.100063782737
102	170287	31.606023131213	0.099933783313
102	170844	31.706047915124	0.100024783911
102	171401	31.80605969964	0.100011784516
102	171958	31.906006484766	0.099946785126
102	172523	32.006031270504	0.100024785738
102	173080	32.106056056843	0.100024786339
102	173637	32.206080843764	0.100024786921
102	174194	32.30605363123	0.099972787466
102	174751	32.406052419175	0.099998787945
102	175308	32.506025207524	0.099972788349
102	175865	32.606062996173	0.100037788649
102	176422	32.706100784994	0.100037788821
102	176979	32.806008573844	0.09990778885
102	177536	32.906059362555	0.100050788711
102	178101	33.006019150954	0.099959788399
102	178658	33.106056938853	0.100037787899
102	179215	33.206029726058	0.099972787205
102	179772	33.306028512366	0.099998786308
102	180329	33.406066297571	0.100037785205
102	180886	33.50607808146	0.100011783889
102	181437	33.606037863818	0.099959782358
102	181994	33.706049644423	0.100011780605
102	182551	33.806061423058	0.100011778635
102	183108	33.906086199497	0.100024776439
102	183673	34.006045973519	0.099959774022
102	184230	34.106005744894	0.099959771375
102	184787	34.206069513402	0.100063768508
102	185344	34.306068278814	0.099998765412
102	185901	34.406028040907	0.099959762093
102	186458	34.506052799457	0.10002475855
102	187015	34.606103554241	0.100050754784
102	187572	34.706102305049	0.099998750808
102	188129	34.806075051681	0.099972746632
102	188686	34.906008793958	0.099933742277
102	189251	35.006033531711	0.100024737753
102	189808	35.106019264795	0.099985733084
102	190365	35.206082993083	0.100063728288
