file 1673463 1512143152                                         
version 2
run SinusoidalAccInjectionAttack-50-20171201-16:45:20-91518
attr CACCSpacing 20
attr attackAcc -30
attr attackPos 7
attr attackSpeed 150
attr attackStart 30
attr attacker 4
attr beaconInterval 0.1
attr configname SinusoidalAccInjectionAttack
attr controller 2
attr datetime 20171201-16:45:20
attr experiment SinusoidalAccInjectionAttack
attr fakeAcc "(4 == 4)"
attr fakePos "(4 == 2)"
attr fakeSpeed "(4 == 3)"
attr inifile omnetpp_50.ini
attr iterationvars "$attacker=4, $attackSpeed=150, $attackPos=7, $attackAcc=-30, $leaderSpeed=150, $controller=2, $CACCSpacing=20, $sController=\"PLOEG\", $attackStart=30, $0=2, $1=0.5, $nCars=8, $platoonSize=8, $nLanes=1, $beaconInterval=0.1, $priority=2, $packetSize=200, $ploegH=0.5, $leaderHeadway=1.2, $fakeSpeed=(4 == 3), $fakeAcc=(4 == 4), $fakePos=(4 == 2)"
attr iterationvarsf attacker=4,attackSpeed=150,attackPos=7,attackAcc=-30,leaderSpeed=150,controller=2,CACCSpacing=20,sController=PLOEG,attackStart=30,2,0.5,nCars=8,platoonSize=8,nLanes=1,beaconInterval=0.1,priority=2,packetSize=200,ploegH=0.5,leaderHeadway=1.2,fakeSpeed=(4_==_3),fakeAcc=(4_==_4),fakePos=(4_==_2)-
attr leaderHeadway 1.2
attr leaderSpeed 150
attr measurement "$attacker=4, $attackSpeed=150, $attackPos=7, $attackAcc=-30, $leaderSpeed=150, $controller=2, $CACCSpacing=20, $sController=\"PLOEG\", $attackStart=30, $0=2, $1=0.5, $nCars=8, $platoonSize=8, $nLanes=1, $beaconInterval=0.1, $priority=2, $packetSize=200, $ploegH=0.5, $leaderHeadway=1.2, $fakeSpeed=(4 == 3), $fakeAcc=(4 == 4), $fakePos=(4 == 2)"
attr nCars 8
attr nLanes 1
attr network scenario
attr packetSize 200
attr platoonSize 8
attr ploegH 0.5
attr priority 2
attr processid 91518
attr repetition 0
attr replication #0
attr resultdir results
attr runnumber 50
attr sController "\"PLOEG\""
attr seedset 0
param **.coreDebug false
param **.debug false
param **.headway 0.1s
param **.numberOfCars 8
param **.numberOfCarsPerPlatoon 8
param **.numberOfLanes 1
param **.numericController 2
param **.traffic.nCars 8
param **.traffic.nLanes 1
param **.traffic.platoonInsertDistance 2m
param **.traffic.platoonInsertHeadway 0.5s
param **.traffic.platoonInsertSpeed 150kmph
param **.traffic.platoonInsertTime "1 s"
param **.traffic.platoonLeaderHeadway 1.2s
param **.traffic.platoonSize 8
param **.traffic.platooningVType "\"vtypeauto\""
param **.traffic_type "\"PlatoonsTrafficManager\""
param *.**.nic.mac1609_4.bitrate 6Mbps
param *.**.nic.mac1609_4.txPower 100mW
param *.**.nic.mac1609_4.useServiceChannel false
param *.**.nic.phy80211p.analogueModels "xmldoc(\"config.xml\")"
param *.**.nic.phy80211p.decider "xmldoc(\"config.xml\")"
param *.**.nic.phy80211p.maxTXPower 100mW
param *.**.nic.phy80211p.sensitivity -94dBm
param *.**.nic.phy80211p.thermalNoise -95dBm
param *.**.nic.phy80211p.usePropagationDelay true
param *.**.nic.phy80211p.useThermalNoise true
param *.annotations.draw false
param *.connectionManager.alpha 2.0
param *.connectionManager.carrierFrequency "5.890e9 Hz"
param *.connectionManager.pMax 100mW
param *.connectionManager.sat -94dBm
param *.connectionManager.sendDirect true
param *.manager.autoShutdown true
param *.manager.commandLine "\"sumo --remote-port $port --seed $seed --configuration-file $configFile\""
param *.manager.configFile "\"./sumocfg/freeway.sumo.cfg\""
param *.manager.host "\"localhost\""
param *.manager.margin 25
param *.manager.moduleDisplayString "\"\""
param *.manager.moduleName "\"node\""
param *.manager.moduleType "\"Car\""
param *.manager.updateInterval 0.01s
param *.node[*].appl.attackStart 30s
param *.node[*].appl.attackerType 4
param *.node[*].appl.simulationDuration "60 s"
param *.node[*].appl_type "\"SimplePlatooningApp\""
param *.node[*].helper.nCars 8
param *.node[*].helper.nLanes 1
param *.node[*].helper.platoonSize 8
param *.node[*].helper_type "\"PositionHelper\""
param *.node[*].mobility.x 0
param *.node[*].mobility.y 0
param *.node[*].mobility.z 1.895
param *.node[*].prot.attackStart 30s
param *.node[*].prot.attackerType 4
param *.node[*].prot.attackingNode 3
param *.node[*].prot.beaconingInterval 0.1s
param *.node[*].prot.fakeAcc "(4 == 4)"
param *.node[*].prot.fakePos "(4 == 2)"
param *.node[*].prot.fakeSpeed "(4 == 3)"
param *.node[*].prot.maliciousAcc "-30 mpss"
param *.node[*].prot.maliciousSpeed 150kmph
param *.node[*].prot.packetSize 200
param *.node[*].prot.priority 2
param *.node[*].prot.shiftX "7 m"
param *.node[*].prot.useControllerAcceleration true
param *.node[*].protocol_type "\"SimplePlatooningBeaconing\""
param *.node[*].scenario.accHeadway 0.1s
param *.node[*].scenario.caccC1 0.5
param *.node[*].scenario.caccOmegaN "0.2 Hz"
param *.node[*].scenario.caccSpacing 20m
param *.node[*].scenario.caccXi 1
param *.node[*].scenario.controller "\"PLOEG\""
param *.node[*].scenario.engineTau "0.5 s"
param *.node[*].scenario.leaderHeadway 1.2s
param *.node[*].scenario.leaderSpeed 150kmph
param *.node[*].scenario.ploegH 0.5s
param *.node[*].scenario.ploegKd 0.7
param *.node[*].scenario.ploegKp 0.2
param *.node[*].scenario.useRealisticEngine false
param *.node[*].scenario_type "\"SinusoidalScenario\""
param *.node[*].unicast.packetLossRate 0
param *.obstacles.debug false
param *.playgroundSizeX 65000m
param *.playgroundSizeY 25000m
param *.playgroundSizeZ 50m
param *.world.use2D false
param *.world.useTorus false

vector 0  scenario.node[0].appl  distance  ETV
vector 1  scenario.node[0].appl  relativeSpeed  ETV
vector 2  scenario.node[0].appl  nodeId  ETV
vector 6  scenario.node[0].appl  acceleration  ETV
vector 7  scenario.node[0].appl  controllerAcceleration  ETV
vector 3  scenario.node[0].appl  speed  ETV
vector 4  scenario.node[0].appl  posx  ETV
vector 5  scenario.node[0].appl  posy  ETV
vector 22  scenario.node[1].appl  distance  ETV
vector 23  scenario.node[1].appl  relativeSpeed  ETV
vector 24  scenario.node[1].appl  nodeId  ETV
vector 28  scenario.node[1].appl  acceleration  ETV
vector 29  scenario.node[1].appl  controllerAcceleration  ETV
vector 25  scenario.node[1].appl  speed  ETV
vector 26  scenario.node[1].appl  posx  ETV
vector 27  scenario.node[1].appl  posy  ETV
vector 44  scenario.node[2].appl  distance  ETV
vector 45  scenario.node[2].appl  relativeSpeed  ETV
vector 46  scenario.node[2].appl  nodeId  ETV
vector 50  scenario.node[2].appl  acceleration  ETV
vector 51  scenario.node[2].appl  controllerAcceleration  ETV
vector 47  scenario.node[2].appl  speed  ETV
vector 48  scenario.node[2].appl  posx  ETV
vector 49  scenario.node[2].appl  posy  ETV
vector 66  scenario.node[3].appl  distance  ETV
vector 67  scenario.node[3].appl  relativeSpeed  ETV
vector 68  scenario.node[3].appl  nodeId  ETV
vector 72  scenario.node[3].appl  acceleration  ETV
vector 73  scenario.node[3].appl  controllerAcceleration  ETV
vector 69  scenario.node[3].appl  speed  ETV
vector 70  scenario.node[3].appl  posx  ETV
vector 71  scenario.node[3].appl  posy  ETV
vector 88  scenario.node[4].appl  distance  ETV
vector 89  scenario.node[4].appl  relativeSpeed  ETV
vector 90  scenario.node[4].appl  nodeId  ETV
vector 94  scenario.node[4].appl  acceleration  ETV
vector 95  scenario.node[4].appl  controllerAcceleration  ETV
vector 91  scenario.node[4].appl  speed  ETV
vector 92  scenario.node[4].appl  posx  ETV
vector 93  scenario.node[4].appl  posy  ETV
vector 110  scenario.node[5].appl  distance  ETV
vector 111  scenario.node[5].appl  relativeSpeed  ETV
vector 112  scenario.node[5].appl  nodeId  ETV
vector 116  scenario.node[5].appl  acceleration  ETV
vector 117  scenario.node[5].appl  controllerAcceleration  ETV
vector 113  scenario.node[5].appl  speed  ETV
vector 114  scenario.node[5].appl  posx  ETV
vector 115  scenario.node[5].appl  posy  ETV
vector 132  scenario.node[6].appl  distance  ETV
vector 133  scenario.node[6].appl  relativeSpeed  ETV
vector 134  scenario.node[6].appl  nodeId  ETV
vector 138  scenario.node[6].appl  acceleration  ETV
vector 139  scenario.node[6].appl  controllerAcceleration  ETV
vector 135  scenario.node[6].appl  speed  ETV
vector 136  scenario.node[6].appl  posx  ETV
vector 137  scenario.node[6].appl  posy  ETV
vector 154  scenario.node[7].appl  distance  ETV
vector 155  scenario.node[7].appl  relativeSpeed  ETV
vector 156  scenario.node[7].appl  nodeId  ETV
vector 160  scenario.node[7].appl  acceleration  ETV
vector 161  scenario.node[7].appl  controllerAcceleration  ETV
vector 157  scenario.node[7].appl  speed  ETV
vector 158  scenario.node[7].appl  posx  ETV
vector 159  scenario.node[7].appl  posy  ETV
vector 80  scenario.node[3].prot  frontDelay  ETV
vector 78  scenario.node[3].prot  frontDelayId  ETV
vector 58  scenario.node[2].prot  frontDelay  ETV
vector 56  scenario.node[2].prot  frontDelayId  ETV
vector 168  scenario.node[7].prot  frontDelay  ETV
vector 166  scenario.node[7].prot  frontDelayId  ETV
vector 35  scenario.node[1].prot  leaderDelay  ETV
vector 33  scenario.node[1].prot  leaderDelayId  ETV
vector 36  scenario.node[1].prot  frontDelay  ETV
vector 34  scenario.node[1].prot  frontDelayId  ETV
vector 57  scenario.node[2].prot  leaderDelay  ETV
vector 55  scenario.node[2].prot  leaderDelayId  ETV
vector 79  scenario.node[3].prot  leaderDelay  ETV
vector 77  scenario.node[3].prot  leaderDelayId  ETV
vector 101  scenario.node[4].prot  leaderDelay  ETV
vector 99  scenario.node[4].prot  leaderDelayId  ETV
vector 123  scenario.node[5].prot  leaderDelay  ETV
vector 121  scenario.node[5].prot  leaderDelayId  ETV
vector 145  scenario.node[6].prot  leaderDelay  ETV
vector 143  scenario.node[6].prot  leaderDelayId  ETV
vector 167  scenario.node[7].prot  leaderDelay  ETV
vector 165  scenario.node[7].prot  leaderDelayId  ETV
vector 124  scenario.node[5].prot  frontDelay  ETV
vector 122  scenario.node[5].prot  frontDelayId  ETV
vector 102  scenario.node[4].prot  frontDelay  ETV
vector 100  scenario.node[4].prot  frontDelayId  ETV
vector 146  scenario.node[6].prot  frontDelay  ETV
vector 144  scenario.node[6].prot  frontDelayId  ETV
vector 8  scenario.node[0].prot  nodeId  ETV
vector 9  scenario.node[0].prot  busyTime  ETV
vector 10  scenario.node[0].prot  collisions  ETV
vector 30  scenario.node[1].prot  nodeId  ETV
vector 31  scenario.node[1].prot  busyTime  ETV
vector 32  scenario.node[1].prot  collisions  ETV
vector 52  scenario.node[2].prot  nodeId  ETV
vector 53  scenario.node[2].prot  busyTime  ETV
vector 54  scenario.node[2].prot  collisions  ETV
vector 74  scenario.node[3].prot  nodeId  ETV
vector 75  scenario.node[3].prot  busyTime  ETV
vector 76  scenario.node[3].prot  collisions  ETV
vector 96  scenario.node[4].prot  nodeId  ETV
vector 97  scenario.node[4].prot  busyTime  ETV
vector 98  scenario.node[4].prot  collisions  ETV
vector 118  scenario.node[5].prot  nodeId  ETV
vector 119  scenario.node[5].prot  busyTime  ETV
vector 120  scenario.node[5].prot  collisions  ETV
vector 140  scenario.node[6].prot  nodeId  ETV
vector 141  scenario.node[6].prot  busyTime  ETV
vector 142  scenario.node[6].prot  collisions  ETV
vector 162  scenario.node[7].prot  nodeId  ETV
vector 163  scenario.node[7].prot  busyTime  ETV
vector 164  scenario.node[7].prot  collisions  ETV
7	11097 13862 232 328174 1.11 59.91 589 -1.5 1.5 -14.445978168666 993.24092374633
6	24959 18591 232 328174 1.11 59.91 589 -1.4722746794739 1.4513434175775 -12.507273387293 675.29835233824
5	43550 12081 232 328174 1.11 59.91 589 36.55 36.55 21527.95 786846.5725
4	55631 17917 232 328174 1.11 59.91 589 225.4398601528 2679.7559927397 856399.94787593 1541422775.2632
3	73548 17882 232 328174 1.11 59.91 589 40.376854748618 43.631381416411 24584.394369227 1026576.1694128
1	91430 9725 232 328174 1.11 59.91 589 0 0 0 0
0	101155 10314 232 328174 1.11 59.91 589 -1 -1 -589 589
2	111469 9725 232 328174 1.11 59.91 589 0 0 0 0
10	121194 858 5102 328596 2 60 59 0 0 0 0
9	122052 1154 5102 328596 2 60 59 0.022969 0.02625 1.545469 0.040493199961
8	123206 799 5102 328596 2 60 59 0 0 0 0
29	124005 18893 233 328175 1.11 59.91 589 -1.5293265131132 1.5 -12.700719065589 733.68024306331
28	142898 19236 233 328175 1.11 59.91 589 -1.437069992086 1.3623363790266 -6.6702912201386 516.20269035408
27	162134 12670 233 328175 1.11 59.91 589 36.55 36.55 21527.95 786846.5725
26	174804 18490 233 328175 1.11 59.91 589 198.60653190613 2653.309758714 840566.84511777 1495832588.5624
25	193294 18501 233 328175 1.11 59.91 589 40.56394545809 43.463895757694 24588.474613371 1026820.0116733
23	211795 19541 233 328175 1.11 59.91 589 -0.72639939608227 0.70590387662046 -3.9551714104059 142.56575555335
22	231336 18484 233 328175 1.11 59.91 589 22.251736544141 23.757070682632 13477.184363038 308475.70967482
24	249820 10314 233 328175 1.11 59.91 589 1 1 589 589
36	260134 23674 1032 328418 1.25491366976 59.954921395632 588 0.09990212782 0.100099019889 58.80002123205 5.8800052725014
35	283808 23674 1032 328418 1.25491366976 59.954921395632 588 0.09990212782 0.100099019889 58.80002123205 5.8800052725014
34	307482 16096 1032 328418 1.25491366976 59.954921395632 588 1 1 588 588
33	323578 16096 1032 328418 1.25491366976 59.954921395632 588 1 1 588 588
32	339674 858 5103 328597 2 60 59 0 0 0 0
31	340532 1213 5103 328597 2 60 59 0.022969 0.02625 1.545469 0.040493199961
30	341745 858 5103 328597 2 60 59 1 1 59 59
51	342603 19247 234 328176 1.11 59.91 589 -1.4940420786055 1.4188747915768 -6.2776735096611 560.43223007
50	361850 19338 234 328176 1.11 59.91 589 -1.3487059686256 1.2272236307645 -0.15551335346018 394.5111269189
49	381188 12670 234 328176 1.11 59.91 589 36.55 36.55 21527.95 786846.5725
48	393858 18507 234 328176 1.11 59.91 589 171.77320365906 2626.5265534193 824738.03861883 1451105276.1007
47	412365 18489 234 328176 1.11 59.91 589 40.707597243839 43.336758213624 24589.203896031 1026808.892252
45	430854 19515 234 328176 1.11 59.91 589 -0.68495961134779 0.63768360996394 -0.66257974747685 107.84472212812
44	450369 18495 234 328176 1.11 59.91 589 22.321385829647 23.684305545642 13472.821084596 308254.77419345
46	468864 10314 234 328176 1.11 59.91 589 2 2 1178 2356
58	479178 23693 900 328286 1.22965968519 59.929664974786 588 0.099987490744 0.100008069048 58.800005795774 5.8800011711947
57	502871 23706 1038 328424 1.254913759267 59.954921484884 588 0.099902127658 0.100099020098 58.800021231795 5.8800052724504
56	526577 16110 900 328286 1.22965968519 59.929664974786 588 2 2 1176 2352
55	542687 16124 1038 328424 1.254913759267 59.954921484884 588 2 2 1176 2352
54	558811 858 5104 328598 2 60 59 0 0 0 0
53	559669 1213 5104 328598 2 60 59 0.022969 0.02625 1.545469 0.040493199961
52	560882 858 5104 328598 2 60 59 2 2 118 236
73	561740 19321 235 328177 1.11 59.91 589 -1.4034209978488 1.281699368204 0.53273629920581 430.2651557667
72	581061 19427 235 328177 1.11 59.91 589 -1.2415341070223 1.0830125455257 4.815605638678 304.08629152269
71	600488 12670 235 328177 1.11 59.91 589 36.55 36.55 21527.95 786846.5725
70	613158 18499 235 328177 1.11 59.91 589 144.9398601532 2599.4692944372 808910.02927558 1407231895.4002
69	631657 18503 235 328177 1.11 59.91 589 40.822431490021 43.236413939449 24587.135922092 1026581.5923922
67	650160 19562 235 328177 1.11 59.91 589 -0.63288709641942 0.56590458778729 2.0695290720832 83.00161801568
66	669722 18489 235 328177 1.11 59.91 589 22.382850434093 23.630468028866 13471.967983774 308200.30787262
68	688211 10314 235 328177 1.11 59.91 589 3 3 1767 5301
80	698525 23688 832 328218 1.213906595684 59.913898886383 588 0.099987485537 0.10000806924 58.799992796877 5.8799985714257
79	722213 23700 1044 328430 1.254913848773 59.954921575071 588 0.099902127604 0.100099020228 58.800021232476 5.8800052725866
78	745913 16105 832 328218 1.213906595684 59.913898886383 588 3 3 1764 5292
77	762018 16123 1044 328430 1.254913848773 59.954921575071 588 3 3 1764 5292
76	778141 858 5105 328599 2 60 59 0 0 0 0
75	778999 1213 5105 328599 2 60 59 0.022968 0.02625 1.545468 0.040493154024
74	780212 858 5105 328599 2 60 59 3 3 177 531
95	781070 16265 236 328178 1.11 59.91 589 -21.909298715968 1.5 -149.77301591447 9616.5506119748
94	797335 18955 236 328178 1.11 59.91 589 -9.0000000000003 1.4999999999915 56.631722221206 3115.8434947925
93	816290 12670 236 328178 1.11 59.91 589 36.55 36.55 21527.95 786846.5725
92	828960 18504 236 328178 1.11 59.91 589 118.10653190613 2212.4951986317 716694.5361544 1064737054.47
91	847464 18470 236 328178 1.11 59.91 589 11.987160769911 47.325899913087 20987.534368054 805596.77429493
89	865934 19127 236 328178 1.11 59.91 589 -5.1299920504729 30.495607951778 3599.553397982 79247.050086199
88	885061 18508 236 328178 1.11 59.91 589 22.435835880959 401.56661761492 89787.501090095 28176442.927548
90	903569 10314 236 328178 1.11 59.91 589 4 4 2356 9424
102	913883 24282 1246 328653 1.30355165433 60.003563034408 588 0.099987488015 0.100008069341 58.799998886256 5.8799997893723
101	938165 24284 1050 328436 1.254913938279 59.954922865188 588 0.099902133079 0.100099018753 58.800022433087 5.8800055127087
100	962449 16696 1246 328653 1.30355165433 60.003563034408 588 4 4 2352 9408
99	979145 16120 1050 328436 1.254913938279 59.954922865188 588 4 4 2352 9408
98	995265 858 5106 328600 2 60 59 0 0 0 0
97	996123 1213 5106 328600 2 60 59 0.022969 0.02625 1.545469 0.040493199961
96	997336 858 5106 328600 2 60 59 4 4 236 944
117	998194 19014 237 328179 1.11 59.91 589 -19.029137122892 2.3841860404842 -102.45434887882 7745.2661997741
116	1017208 19541 237 328179 1.11 59.91 589 -9.0000000000003 2.040812765474 56.106673515474 3090.9643957254
115	1036749 13259 237 328179 1.11 59.91 589 36.55 36.55 21527.95 786846.5725
114	1050008 19084 237 328179 1.11 59.91 589 91.273196029663 2182.9194197837 702438.95447651 1031423698.6521
113	1069092 19079 237 328179 1.11 59.91 589 11.682455524918 47.275565842158 20960.093881627 802137.07064033
111	1088171 20061 237 328179 1.11 59.91 589 -3.1722522335062 0.75033671871589 26.874169204585 418.05570844392
110	1108232 19072 237 328179 1.11 59.91 589 12.356520555026 25.574808406802 11899.032868161 250373.25282902
112	1127304 10903 237 328179 1.11 59.91 589 5 5 2945 14725
124	1138207 24291 1172 328552 1.265750564824 59.965746553876 588 0.099987501849 0.100008069939 58.79999649523 5.8799993110415
123	1162498 24249 1056 328442 1.254914027786 59.954922963848 588 0.099902133325 0.100099019004 58.80002244224 5.8800055145393
122	1186747 16713 1172 328552 1.265750564824 59.965746553876 588 5 5 2940 14700
121	1203460 16692 1056 328442 1.254914027786 59.954922963848 588 5 5 2940 14700
120	1220152 917 5107 328601 2 60 59 0 0 0 0
119	1221069 1272 5107 328601 2 60 59 0.022968 0.02625 1.545468 0.040493154024
118	1222341 917 5107 328601 2 60 59 5 5 295 1475
139	1223258 19062 238 328180 1.11 59.91 589 -16.971981975372 2.9424142877821 -65.507735760154 6494.3841313142
138	1242320 19503 238 328180 1.11 59.91 589 -9.0000000000003 2.5 54.43255702723 3066.6935648258
137	1261823 13259 238 328180 1.11 59.91 589 36.55 36.55 21527.95 786846.5725
136	1275082 19087 238 328180 1.11 59.91 589 64.439863967896 2153.4197965803 688248.82380161 999055665.75052
135	1294169 19070 238 328180 1.11 59.91 589 11.473529932295 47.094021565799 20933.369569381 798981.86152061
133	1313239 20025 238 328180 1.11 59.91 589 -3.4555613605429 0.84811164009452 26.163245510769 470.33153904359
132	1333264 19091 238 328180 1.11 59.91 589 11.337157570503 25.49599231786 11833.596188654 248170.65883091
134	1352355 10903 238 328180 1.11 59.91 589 6 6 3534 21204
146	1363258 24286 1312 328701 1.305160833343 60.005159231524 588 0.099987495223 0.100008069668 58.799998904359 5.8799997929071
145	1387544 24276 1062 328448 1.254914117292 59.954923062271 588 0.09990213356 0.100099019254 58.800022451157 5.8800055163227
144	1411820 16716 1312 328701 1.305160833343 60.005159231524 588 6 6 3528 21168
143	1428536 16699 1062 328448 1.254914117292 59.954923062271 588 6 6 3528 21168
142	1445235 917 5108 328602 2 60 59 0 0 0 0
141	1446152 1272 5108 328602 2 60 59 0.022969 0.02625 1.545469 0.040493199961
140	1447424 917 5108 328602 2 60 59 6 6 354 2124
161	1448341 19151 239 328181 1.11 59.91 589 -15.340177797557 3.3110499619677 -32.857822555912 5589.8971757199
160	1467492 19445 239 328181 1.11 59.91 589 -9.0000000000003 2.5 51.151933801386 3029.7908812868
159	1486937 13259 239 328181 1.11 59.91 589 36.55 36.55 21527.95 786846.5725
158	1500196 19084 239 328181 1.11 59.91 589 37.606529998779 2124.0744482421 674085.62106266 967515103.40375
157	1519280 19089 239 328181 1.11 59.91 589 11.359241916767 46.744997476137 20908.130391238 796157.92230642
155	1538369 20065 239 328181 1.11 59.91 589 -3.6392532857781 1.0568557267438 24.694852573387 509.6307196961
154	1558434 19091 239 328181 1.11 59.91 589 10.604464195578 25.33836785636 11806.697955387 247068.65896745
156	1577525 10903 239 328181 1.11 59.91 589 7 7 4123 28861
168	1588428 24257 975 328355 1.254435132722 59.954428650649 588 0.099987486861 0.100008069372 58.799994024105 5.8799988168647
167	1612685 24285 1068 328454 1.254914206799 59.954923160202 588 0.099902133759 0.100099019504 58.800022459581 5.8800055180075
166	1636970 16681 975 328355 1.254435132722 59.954428650649 588 7 7 4116 28812
165	1653651 16706 1068 328454 1.254914206799 59.954923160202 588 7 7 4116 28812
164	1670357 917 5109 328603 2 60 59 0 0 0 0
163	1671274 1272 5109 328603 2 60 59 0.022969 0.02625 1.545469 0.040493199961
162	1672546 917 5109 328603 2 60 59 7 7 413 2891
