file 899651 1512143935                                          
version 2
run SinusoidalAccInjectionAttack-202-20171201-16:58:37-116530
attr CACCSpacing 5
attr attackAcc 10
attr attackPos 7
attr attackSpeed 150
attr attackStart 30
attr attacker 4
attr beaconInterval 0.1
attr configname SinusoidalAccInjectionAttack
attr controller 1
attr datetime 20171201-16:58:37
attr experiment SinusoidalAccInjectionAttack
attr fakeAcc "(4 == 4)"
attr fakePos "(4 == 2)"
attr fakeSpeed "(4 == 3)"
attr inifile omnetpp_202.ini
attr iterationvars "$attacker=4, $attackSpeed=150, $attackPos=7, $attackAcc=10, $leaderSpeed=100, $controller=1, $CACCSpacing=5, $sController=\"CACC\", $attackStart=30, $0=5, $1=0, $nCars=8, $platoonSize=8, $nLanes=1, $beaconInterval=0.1, $priority=2, $packetSize=200, $ploegH=0.5, $leaderHeadway=1.2, $fakeSpeed=(4 == 3), $fakeAcc=(4 == 4), $fakePos=(4 == 2)"
attr iterationvarsf attacker=4,attackSpeed=150,attackPos=7,attackAcc=10,leaderSpeed=100,controller=1,CACCSpacing=5,sController=CACC,attackStart=30,5,0,nCars=8,platoonSize=8,nLanes=1,beaconInterval=0.1,priority=2,packetSize=200,ploegH=0.5,leaderHeadway=1.2,fakeSpeed=(4_==_3),fakeAcc=(4_==_4),fakePos=(4_==_2)-
attr leaderHeadway 1.2
attr leaderSpeed 100
attr measurement "$attacker=4, $attackSpeed=150, $attackPos=7, $attackAcc=10, $leaderSpeed=100, $controller=1, $CACCSpacing=5, $sController=\"CACC\", $attackStart=30, $0=5, $1=0, $nCars=8, $platoonSize=8, $nLanes=1, $beaconInterval=0.1, $priority=2, $packetSize=200, $ploegH=0.5, $leaderHeadway=1.2, $fakeSpeed=(4 == 3), $fakeAcc=(4 == 4), $fakePos=(4 == 2)"
attr nCars 8
attr nLanes 1
attr network scenario
attr packetSize 200
attr platoonSize 8
attr ploegH 0.5
attr priority 2
attr processid 116530
attr repetition 2
attr replication #2
attr resultdir results
attr runnumber 202
attr sController "\"CACC\""
attr seedset 2
param **.coreDebug false
param **.debug false
param **.headway 0.1s
param **.numberOfCars 8
param **.numberOfCarsPerPlatoon 8
param **.numberOfLanes 1
param **.numericController 1
param **.traffic.nCars 8
param **.traffic.nLanes 1
param **.traffic.platoonInsertDistance 5m
param **.traffic.platoonInsertHeadway 0s
param **.traffic.platoonInsertSpeed 100kmph
param **.traffic.platoonInsertTime "1 s"
param **.traffic.platoonLeaderHeadway 1.2s
param **.traffic.platoonSize 8
param **.traffic.platooningVType "\"vtypeauto\""
param **.traffic_type "\"PlatoonsTrafficManager\""
param *.**.nic.mac1609_4.bitrate 6Mbps
param *.**.nic.mac1609_4.txPower 100mW
param *.**.nic.mac1609_4.useServiceChannel false
param *.**.nic.phy80211p.analogueModels "xmldoc(\"config.xml\")"
param *.**.nic.phy80211p.decider "xmldoc(\"config.xml\")"
param *.**.nic.phy80211p.maxTXPower 100mW
param *.**.nic.phy80211p.sensitivity -94dBm
param *.**.nic.phy80211p.thermalNoise -95dBm
param *.**.nic.phy80211p.usePropagationDelay true
param *.**.nic.phy80211p.useThermalNoise true
param *.annotations.draw false
param *.connectionManager.alpha 2.0
param *.connectionManager.carrierFrequency "5.890e9 Hz"
param *.connectionManager.pMax 100mW
param *.connectionManager.sat -94dBm
param *.connectionManager.sendDirect true
param *.manager.autoShutdown true
param *.manager.commandLine "\"sumo --remote-port $port --seed $seed --configuration-file $configFile\""
param *.manager.configFile "\"./sumocfg/freeway.sumo.cfg\""
param *.manager.host "\"localhost\""
param *.manager.margin 25
param *.manager.moduleDisplayString "\"\""
param *.manager.moduleName "\"node\""
param *.manager.moduleType "\"Car\""
param *.manager.updateInterval 0.01s
param *.node[*].appl.attackStart 30s
param *.node[*].appl.attackerType 4
param *.node[*].appl.simulationDuration "60 s"
param *.node[*].appl_type "\"SimplePlatooningApp\""
param *.node[*].helper.nCars 8
param *.node[*].helper.nLanes 1
param *.node[*].helper.platoonSize 8
param *.node[*].helper_type "\"PositionHelper\""
param *.node[*].mobility.x 0
param *.node[*].mobility.y 0
param *.node[*].mobility.z 1.895
param *.node[*].prot.attackStart 30s
param *.node[*].prot.attackerType 4
param *.node[*].prot.attackingNode 3
param *.node[*].prot.beaconingInterval 0.1s
param *.node[*].prot.fakeAcc "(4 == 4)"
param *.node[*].prot.fakePos "(4 == 2)"
param *.node[*].prot.fakeSpeed "(4 == 3)"
param *.node[*].prot.maliciousAcc "10 mpss"
param *.node[*].prot.maliciousSpeed 150kmph
param *.node[*].prot.packetSize 200
param *.node[*].prot.priority 2
param *.node[*].prot.shiftX "7 m"
param *.node[*].prot.useControllerAcceleration true
param *.node[*].protocol_type "\"SimplePlatooningBeaconing\""
param *.node[*].scenario.accHeadway 0.1s
param *.node[*].scenario.caccC1 0.5
param *.node[*].scenario.caccOmegaN "0.2 Hz"
param *.node[*].scenario.caccSpacing 5m
param *.node[*].scenario.caccXi 1
param *.node[*].scenario.controller "\"CACC\""
param *.node[*].scenario.engineTau "0.5 s"
param *.node[*].scenario.leaderHeadway 1.2s
param *.node[*].scenario.leaderSpeed 100kmph
param *.node[*].scenario.ploegH 0.5s
param *.node[*].scenario.ploegKd 0.7
param *.node[*].scenario.ploegKp 0.2
param *.node[*].scenario.useRealisticEngine false
param *.node[*].scenario_type "\"SinusoidalScenario\""
param *.node[*].unicast.packetLossRate 0
param *.obstacles.debug false
param *.playgroundSizeX 65000m
param *.playgroundSizeY 25000m
param *.playgroundSizeZ 50m
param *.world.use2D false
param *.world.useTorus false

vector 0  scenario.node[0].appl  distance  ETV
vector 1  scenario.node[0].appl  relativeSpeed  ETV
vector 2  scenario.node[0].appl  nodeId  ETV
vector 6  scenario.node[0].appl  acceleration  ETV
vector 7  scenario.node[0].appl  controllerAcceleration  ETV
vector 3  scenario.node[0].appl  speed  ETV
vector 4  scenario.node[0].appl  posx  ETV
vector 5  scenario.node[0].appl  posy  ETV
vector 22  scenario.node[1].appl  distance  ETV
vector 23  scenario.node[1].appl  relativeSpeed  ETV
vector 24  scenario.node[1].appl  nodeId  ETV
vector 28  scenario.node[1].appl  acceleration  ETV
vector 29  scenario.node[1].appl  controllerAcceleration  ETV
vector 25  scenario.node[1].appl  speed  ETV
vector 26  scenario.node[1].appl  posx  ETV
vector 27  scenario.node[1].appl  posy  ETV
vector 44  scenario.node[2].appl  distance  ETV
vector 45  scenario.node[2].appl  relativeSpeed  ETV
vector 46  scenario.node[2].appl  nodeId  ETV
vector 50  scenario.node[2].appl  acceleration  ETV
vector 51  scenario.node[2].appl  controllerAcceleration  ETV
vector 47  scenario.node[2].appl  speed  ETV
vector 48  scenario.node[2].appl  posx  ETV
vector 49  scenario.node[2].appl  posy  ETV
vector 66  scenario.node[3].appl  distance  ETV
vector 67  scenario.node[3].appl  relativeSpeed  ETV
vector 68  scenario.node[3].appl  nodeId  ETV
vector 72  scenario.node[3].appl  acceleration  ETV
vector 73  scenario.node[3].appl  controllerAcceleration  ETV
vector 69  scenario.node[3].appl  speed  ETV
vector 70  scenario.node[3].appl  posx  ETV
vector 71  scenario.node[3].appl  posy  ETV
vector 88  scenario.node[4].appl  distance  ETV
vector 89  scenario.node[4].appl  relativeSpeed  ETV
vector 90  scenario.node[4].appl  nodeId  ETV
vector 94  scenario.node[4].appl  acceleration  ETV
vector 95  scenario.node[4].appl  controllerAcceleration  ETV
vector 91  scenario.node[4].appl  speed  ETV
vector 92  scenario.node[4].appl  posx  ETV
vector 93  scenario.node[4].appl  posy  ETV
vector 110  scenario.node[5].appl  distance  ETV
vector 111  scenario.node[5].appl  relativeSpeed  ETV
vector 112  scenario.node[5].appl  nodeId  ETV
vector 116  scenario.node[5].appl  acceleration  ETV
vector 117  scenario.node[5].appl  controllerAcceleration  ETV
vector 113  scenario.node[5].appl  speed  ETV
vector 114  scenario.node[5].appl  posx  ETV
vector 115  scenario.node[5].appl  posy  ETV
vector 132  scenario.node[6].appl  distance  ETV
vector 133  scenario.node[6].appl  relativeSpeed  ETV
vector 134  scenario.node[6].appl  nodeId  ETV
vector 138  scenario.node[6].appl  acceleration  ETV
vector 139  scenario.node[6].appl  controllerAcceleration  ETV
vector 135  scenario.node[6].appl  speed  ETV
vector 136  scenario.node[6].appl  posx  ETV
vector 137  scenario.node[6].appl  posy  ETV
vector 154  scenario.node[7].appl  distance  ETV
vector 155  scenario.node[7].appl  relativeSpeed  ETV
vector 156  scenario.node[7].appl  nodeId  ETV
vector 160  scenario.node[7].appl  acceleration  ETV
vector 161  scenario.node[7].appl  controllerAcceleration  ETV
vector 157  scenario.node[7].appl  speed  ETV
vector 158  scenario.node[7].appl  posx  ETV
vector 159  scenario.node[7].appl  posy  ETV
vector 168  scenario.node[7].prot  frontDelay  ETV
vector 166  scenario.node[7].prot  frontDelayId  ETV
vector 146  scenario.node[6].prot  frontDelay  ETV
vector 144  scenario.node[6].prot  frontDelayId  ETV
vector 35  scenario.node[1].prot  leaderDelay  ETV
vector 33  scenario.node[1].prot  leaderDelayId  ETV
vector 36  scenario.node[1].prot  frontDelay  ETV
vector 34  scenario.node[1].prot  frontDelayId  ETV
vector 57  scenario.node[2].prot  leaderDelay  ETV
vector 55  scenario.node[2].prot  leaderDelayId  ETV
vector 79  scenario.node[3].prot  leaderDelay  ETV
vector 77  scenario.node[3].prot  leaderDelayId  ETV
vector 101  scenario.node[4].prot  leaderDelay  ETV
vector 99  scenario.node[4].prot  leaderDelayId  ETV
vector 123  scenario.node[5].prot  leaderDelay  ETV
vector 121  scenario.node[5].prot  leaderDelayId  ETV
vector 145  scenario.node[6].prot  leaderDelay  ETV
vector 143  scenario.node[6].prot  leaderDelayId  ETV
vector 167  scenario.node[7].prot  leaderDelay  ETV
vector 165  scenario.node[7].prot  leaderDelayId  ETV
vector 102  scenario.node[4].prot  frontDelay  ETV
vector 100  scenario.node[4].prot  frontDelayId  ETV
vector 80  scenario.node[3].prot  frontDelay  ETV
vector 78  scenario.node[3].prot  frontDelayId  ETV
vector 124  scenario.node[5].prot  frontDelay  ETV
vector 122  scenario.node[5].prot  frontDelayId  ETV
vector 58  scenario.node[2].prot  frontDelay  ETV
vector 56  scenario.node[2].prot  frontDelayId  ETV
vector 8  scenario.node[0].prot  nodeId  ETV
vector 9  scenario.node[0].prot  busyTime  ETV
vector 10  scenario.node[0].prot  collisions  ETV
vector 30  scenario.node[1].prot  nodeId  ETV
vector 31  scenario.node[1].prot  busyTime  ETV
vector 32  scenario.node[1].prot  collisions  ETV
vector 52  scenario.node[2].prot  nodeId  ETV
vector 53  scenario.node[2].prot  busyTime  ETV
vector 54  scenario.node[2].prot  collisions  ETV
vector 74  scenario.node[3].prot  nodeId  ETV
vector 75  scenario.node[3].prot  busyTime  ETV
vector 76  scenario.node[3].prot  collisions  ETV
vector 96  scenario.node[4].prot  nodeId  ETV
vector 97  scenario.node[4].prot  busyTime  ETV
vector 98  scenario.node[4].prot  collisions  ETV
vector 118  scenario.node[5].prot  nodeId  ETV
vector 119  scenario.node[5].prot  busyTime  ETV
vector 120  scenario.node[5].prot  collisions  ETV
vector 140  scenario.node[6].prot  nodeId  ETV
vector 141  scenario.node[6].prot  busyTime  ETV
vector 142  scenario.node[6].prot  collisions  ETV
vector 162  scenario.node[7].prot  nodeId  ETV
vector 163  scenario.node[7].prot  busyTime  ETV
vector 164  scenario.node[7].prot  collisions  ETV
7	11079 7572 232 176454 1.11 32.71 317 -1.5 1.5 10.746018686734 498.30984025099
6	18651 9943 232 176454 1.11 32.71 317 -1.4722746794938 1.451340770512 12.673993543562 335.59596169503
5	28594 6369 232 176454 1.11 32.71 317 36.55 36.55 11586.35 423481.0925
4	34963 9507 232 176454 1.11 32.71 317 100.67108077976 982.51080699858 172028.56992689 114015083.50186
3	44470 9505 232 176454 1.11 32.71 317 26.488037261118 29.742492528104 8846.6208936334 247119.7216001
1	53975 5101 232 176454 1.11 32.71 317 0 0 0 0
0	59076 5418 232 176454 1.11 32.71 317 -1 -1 -317 317
2	64494 5101 232 176454 1.11 32.71 317 0 0 0 0
10	69595 438 5168 172478 2 32 31 0 0 0 0
9	70033 594 5168 172478 2 32 31 0.023297 0.02625 0.810797 0.021214625209
8	70627 407 5168 172478 2 32 31 0 0 0 0
29	71034 10183 233 176455 1.11 32.71 317 -1.523393431168 1.5241491852394 11.969562733959 503.84230546363
28	81217 10239 233 176455 1.11 32.71 317 -1.4872877338334 1.4632119881718 12.92772834921 339.31054813386
27	91456 6686 233 176455 1.11 32.71 317 36.55 36.55 11586.35 423481.0925
26	98142 9814 233 176455 1.11 32.71 317 91.671076965332 973.42017385221 169172.81368024 110942292.02443
25	107956 9815 233 176455 1.11 32.71 317 26.480495449638 29.747905211783 8845.722500058 247071.63873856
23	117771 10732 233 176455 1.11 32.71 317 -0.085370874489843 0.085492720331722 0.7716536399745 1.2160098166504
22	128503 9818 233 176455 1.11 32.71 317 4.9094714772849 5.1291569272015 1587.7382787731 7953.5350234293
24	138321 5418 233 176455 1.11 32.71 317 1 1 317 317
36	143739 12605 1034 176700 1.262216930646 32.762210723082 316 0.099998622763 0.10001166314 31.599992452894 3.1599984954397
35	156344 12605 1034 176700 1.262216930646 32.762210723082 316 0.099998622763 0.10001166314 31.599992452894 3.1599984954397
34	168949 8525 1034 176700 1.262216930646 32.762210723082 316 1 1 316 316
33	177474 8525 1034 176700 1.262216930646 32.762210723082 316 1 1 316 316
32	185999 438 5169 172479 2 32 31 0 0 0 0
31	186437 625 5169 172479 2 32 31 0.023296 0.02625 0.810796 0.021214578616
30	187062 438 5169 172479 2 32 31 1 1 31 31
51	187500 10159 234 176456 1.11 32.71 317 -1.4963007061426 1.4967154530627 12.412794419346 482.97885356347
50	197659 10210 234 176456 1.11 32.71 317 -1.4778825511858 1.4526090797784 12.899701167197 336.08079579492
49	207869 6686 234 176456 1.11 32.71 317 36.55 36.55 11586.35 423481.0925
48	214555 9817 234 176456 1.11 32.71 317 82.671076965332 964.39550525318 166318.54064798 107922082.49202
47	224372 9828 234 176456 1.11 32.71 317 26.486728987222 29.742197225852 8845.4741445855 247055.20551137
45	234200 10792 234 176456 1.11 32.71 317 -0.01940609115637 0.017598484001979 0.11907818896723 0.034724058450645
44	244992 9817 234 176456 1.11 32.71 317 4.9758459057372 5.0458892399179 1586.2680651496 7937.7834890497
46	254809 5418 234 176456 1.11 32.71 317 2 2 634 1268
58	260227 12578 1312 176416 1.302609200833 32.702604340078 315 0.099998623514 0.10001166295 31.500006799703 3.1500013649334
57	272805 12600 1040 176706 1.262216960667 32.762210753185 316 0.099998622764 0.10001166314 31.599992452976 3.1599984954561
56	285405 8518 1312 176416 1.302609200833 32.702604340078 315 2 2 630 1260
55	293923 8529 1040 176706 1.262216960667 32.762210753185 316 2 2 632 1264
54	302452 438 5170 172480 2 32 31 0 0 0 0
53	302890 625 5170 172480 2 32 31 0.023297 0.02625 0.810797 0.021214625209
52	303515 438 5170 172480 2 32 31 2 2 62 124
73	303953 10193 235 176457 1.11 32.71 317 -1.5144504202722 1.515444167014 12.237734124689 493.79330160735
72	314146 10238 235 176457 1.11 32.71 317 -1.4663369050815 1.4406243148336 12.794229235953 330.17067259133
71	324384 6686 235 176457 1.11 32.71 317 36.55 36.55 11586.35 423481.0925
70	331070 9812 235 176457 1.11 32.71 317 73.671076965332 955.37941287856 163464.28455908 104953396.98601
69	340882 9828 235 176457 1.11 32.71 317 26.498340218155 29.729722568859 8845.309462836 247042.07011436
67	350710 10865 235 176457 1.11 32.71 317 -0.015760221557269 0.014948748977439 0.035684737899061 0.019463429283464
66	361575 9807 235 176457 1.11 32.71 317 4.9816113590248 5.0406527211558 1586.2527952647 7937.5976167441
68	371382 5418 235 176457 1.11 32.71 317 3 3 951 2853
80	376800 12606 1176 176836 1.287873050729 32.787879843415 316 0.099998622776 0.10001166287 31.600005453144 3.1600010956235
79	389406 12618 1046 176712 1.262216990687 32.762210783262 316 0.099998622769 0.100011663143 31.599992453033 3.1599984954675
78	402024 8531 1176 176836 1.287873050729 32.787879843415 316 3 3 948 2844
77	410555 8532 1046 176712 1.262216990687 32.762210783262 316 3 3 948 2844
76	419087 438 5171 172481 2 32 31 0 0 0 0
75	419525 625 5171 172481 2 32 31 0.023297 0.02625 0.810797 0.021214625209
74	420150 438 5171 172481 2 32 31 3 3 93 279
117	420588 10505 237 176459 1.11 32.71 317 -1.5085423822581 3.6224649652633 61.691648563924 682.98171967711
116	431093 10555 237 176459 1.11 32.71 317 -1.456650675367 2.4999999999999 44.024262012974 428.04391501166
115	441648 7003 237 176459 1.11 32.71 317 36.55 36.55 11586.35 423481.0925
114	448651 10136 237 176459 1.11 32.71 317 55.671078872681 941.16891939074 157789.16058648 99230841.337414
113	458787 10142 237 176459 1.11 32.71 317 26.504535092677 32.112364055921 8884.2861394083 249321.95738569
111	468929 10986 237 176459 1.11 32.71 317 -0.030357793994941 0.5561865735605 9.0112088341853 3.3103358955954
110	479915 10143 237 176459 1.11 32.71 317 4.9827406404585 5.9187706653768 1597.2115273251 8053.8278680447
112	490058 5735 237 176459 1.11 32.71 317 5 5 1585 7925
124	495793 12886 1244 176353 1.297503110771 32.697511268364 315 0.099998624851 0.100011662942 31.500006818051 3.1500013686029
123	508679 12941 1058 176724 1.262217050729 32.762210830142 316 0.099998621741 0.100011663147 31.599992439871 3.1599984928351
122	521620 8831 1244 176353 1.297503110771 32.697511268364 315 5 5 1575 7875
121	530451 8859 1058 176724 1.262217050729 32.762210830142 316 5 5 1580 7900
120	539310 469 5173 172483 2 32 31 0 0 0 0
119	539779 656 5173 172483 2 32 31 0.023297 0.02625 0.810797 0.021214625209
118	540435 469 5173 172483 2 32 31 5 5 155 775
139	540904 10499 238 176460 1.11 32.71 317 -1.4954220887401 2.5620991976745 38.207533795163 558.48655984454
138	551403 10554 238 176460 1.11 32.71 317 -1.4604221075192 2.3610302874566 33.747268600868 391.31518060041
137	561957 7003 238 176460 1.11 32.71 317 36.55 36.55 11586.35 423481.0925
136	568960 10134 238 176460 1.11 32.71 317 46.671078872681 930.71285130387 154920.6914195 96389234.094164
135	579094 10137 238 176460 1.11 32.71 317 26.503427764013 31.106986589382 8869.3694447921 248436.98906692
133	589231 11218 238 176460 1.11 32.71 317 -0.0098296237455564 0.98929377275618 14.476451996068 10.002473784639
132	600449 10123 238 176460 1.11 32.71 317 4.980508969484 6.4359605375361 1600.1708330823 8089.7659430784
134	610572 5735 238 176460 1.11 32.71 317 6 6 1902 11412
146	616307 12926 970 176636 1.247594780542 32.747601590153 316 0.09999862412 0.100011663076 31.600005470069 3.1600010990082
145	629233 12907 1064 176730 1.26221708075 32.762210865192 316 0.09999862208 0.100011663144 31.5999924449 3.1599984938409
144	642140 8841 970 176636 1.247594780542 32.747601590153 316 6 6 1896 11376
143	650981 8841 1064 176730 1.26221708075 32.762210865192 316 6 6 1896 11376
142	659822 469 5174 172484 2 32 31 0 0 0 0
141	660291 656 5174 172484 2 32 31 0.023297 0.02625 0.810797 0.021214625209
140	660947 469 5174 172484 2 32 31 6 6 186 1116
161	661416 10499 239 176461 1.11 32.71 317 -1.4854568329602 2.0440182359475 27.058501055666 503.84772714267
160	671915 10559 239 176461 1.11 32.71 317 -1.4553421981653 1.9843197727763 24.412150211923 357.02487636377
159	682474 7003 239 176461 1.11 32.71 317 36.55 36.55 11586.35 423481.0925
158	689477 10149 239 176461 1.11 32.71 317 37.671077919006 920.56024140501 152056.66881295 93607470.662265
157	699626 10141 239 176461 1.11 32.71 317 26.508618233206 30.189649850769 8857.5195439138 247741.12220593
155	709767 11228 239 176461 1.11 32.71 317 -0.0093026005885264 0.90688685706219 11.512428192311 7.2043364326854
154	720995 10130 239 176461 1.11 32.71 317 4.9964427800431 6.1342631640924 1595.7856085357 8039.7348376084
156	731125 5735 239 176461 1.11 32.71 317 7 7 2219 15533
168	736860 12927 832 176492 1.212136690479 32.712130486365 316 0.099998623152 0.100011663088 31.599992456344 3.1599984961294
167	749787 12925 1070 176736 1.26221711077 32.762210899212 316 0.099998622387 0.100011663145 31.5999924489 3.1599984946409
166	762712 8849 832 176492 1.212136690479 32.712130486365 316 7 7 2212 15484
165	771561 8844 1070 176736 1.26221711077 32.762210899212 316 7 7 2212 15484
164	780405 469 5175 172485 2 32 31 0 0 0 0
163	780874 656 5175 172485 2 32 31 0.023297 0.02625 0.810797 0.021214625209
162	781530 469 5175 172485 2 32 31 7 7 217 1519
88	781999 9832 236 176874 1.11 32.79 318 0 5.026845994029 1542.6919788132 7629.1311668069
89	791831 10833 236 176874 1.11 32.79 318 -3.8665162809592 0.014322352017963 -52.485863295295 131.4258617041
90	802664 5436 236 176874 1.11 32.79 318 4 4 1272 5088
91	808100 9847 236 176874 1.11 32.79 318 26.509200327943 32.893550629481 8926.6944181874 250968.72640695
92	817947 9855 236 176874 1.11 32.79 318 64.671076965332 953.72579783794 161608.2882062 103028407.25469
93	827802 6708 236 176874 1.11 32.79 318 36.55 36.55 11622.9 424816.995
94	834510 10266 236 176874 1.11 32.79 318 -1.4562064283634 2.4999999999999 52.85193154108 455.3620928914
95	844776 10225 236 176874 1.11 32.79 318 -1.500026050095 5.7196999888609 114.92347846023 1061.7598228384
96	855001 438 5172 172482 2 32 31 4 4 124 496
97	855439 625 5172 172482 2 32 31 0.023297 0.02625 0.810797 0.021214625209
98	856064 438 5172 172482 2 32 31 0 0 0 0
99	856502 8512 1052 176718 1.262217020708 32.762210796914 316 4 4 1264 5056
100	865014 8836 1108 176768 1.276579020708 32.776585796788 316 4 4 1264 5056
101	873850 12892 1052 176718 1.262217020708 32.762210796914 316 0.099998621542 0.100011663146 31.599992436664 3.1599984921937
102	886742 12909 1108 176768 1.276579020708 32.776585796788 316 0.099998621535 0.100011662875 31.600005436538 3.1600010923023
