file 1668775 1512142958                                         
version 2
run SinusoidalAccInjectionAttack-12-20171201-16:42:07-45393
attr CACCSpacing 20
attr attackAcc -30
attr attackPos 7
attr attackSpeed 150
attr attackStart 30
attr attacker 4
attr beaconInterval 0.1
attr configname SinusoidalAccInjectionAttack
attr controller 2
attr datetime 20171201-16:42:07
attr experiment SinusoidalAccInjectionAttack
attr fakeAcc "(4 == 4)"
attr fakePos "(4 == 2)"
attr fakeSpeed "(4 == 3)"
attr inifile omnetpp_12.ini
attr iterationvars "$attacker=4, $attackSpeed=150, $attackPos=7, $attackAcc=-30, $leaderSpeed=50, $controller=2, $CACCSpacing=20, $sController=\"PLOEG\", $attackStart=30, $0=2, $1=0.5, $nCars=8, $platoonSize=8, $nLanes=1, $beaconInterval=0.1, $priority=2, $packetSize=200, $ploegH=0.5, $leaderHeadway=1.2, $fakeSpeed=(4 == 3), $fakeAcc=(4 == 4), $fakePos=(4 == 2)"
attr iterationvarsf attacker=4,attackSpeed=150,attackPos=7,attackAcc=-30,leaderSpeed=50,controller=2,CACCSpacing=20,sController=PLOEG,attackStart=30,2,0.5,nCars=8,platoonSize=8,nLanes=1,beaconInterval=0.1,priority=2,packetSize=200,ploegH=0.5,leaderHeadway=1.2,fakeSpeed=(4_==_3),fakeAcc=(4_==_4),fakePos=(4_==_2)-
attr leaderHeadway 1.2
attr leaderSpeed 50
attr measurement "$attacker=4, $attackSpeed=150, $attackPos=7, $attackAcc=-30, $leaderSpeed=50, $controller=2, $CACCSpacing=20, $sController=\"PLOEG\", $attackStart=30, $0=2, $1=0.5, $nCars=8, $platoonSize=8, $nLanes=1, $beaconInterval=0.1, $priority=2, $packetSize=200, $ploegH=0.5, $leaderHeadway=1.2, $fakeSpeed=(4 == 3), $fakeAcc=(4 == 4), $fakePos=(4 == 2)"
attr nCars 8
attr nLanes 1
attr network scenario
attr packetSize 200
attr platoonSize 8
attr ploegH 0.5
attr priority 2
attr processid 45393
attr repetition 2
attr replication #2
attr resultdir results
attr runnumber 12
attr sController "\"PLOEG\""
attr seedset 2
param **.coreDebug false
param **.debug false
param **.headway 0.1s
param **.numberOfCars 8
param **.numberOfCarsPerPlatoon 8
param **.numberOfLanes 1
param **.numericController 2
param **.traffic.nCars 8
param **.traffic.nLanes 1
param **.traffic.platoonInsertDistance 2m
param **.traffic.platoonInsertHeadway 0.5s
param **.traffic.platoonInsertSpeed 50kmph
param **.traffic.platoonInsertTime "1 s"
param **.traffic.platoonLeaderHeadway 1.2s
param **.traffic.platoonSize 8
param **.traffic.platooningVType "\"vtypeauto\""
param **.traffic_type "\"PlatoonsTrafficManager\""
param *.**.nic.mac1609_4.bitrate 6Mbps
param *.**.nic.mac1609_4.txPower 100mW
param *.**.nic.mac1609_4.useServiceChannel false
param *.**.nic.phy80211p.analogueModels "xmldoc(\"config.xml\")"
param *.**.nic.phy80211p.decider "xmldoc(\"config.xml\")"
param *.**.nic.phy80211p.maxTXPower 100mW
param *.**.nic.phy80211p.sensitivity -94dBm
param *.**.nic.phy80211p.thermalNoise -95dBm
param *.**.nic.phy80211p.usePropagationDelay true
param *.**.nic.phy80211p.useThermalNoise true
param *.annotations.draw false
param *.connectionManager.alpha 2.0
param *.connectionManager.carrierFrequency "5.890e9 Hz"
param *.connectionManager.pMax 100mW
param *.connectionManager.sat -94dBm
param *.connectionManager.sendDirect true
param *.manager.autoShutdown true
param *.manager.commandLine "\"sumo --remote-port $port --seed $seed --configuration-file $configFile\""
param *.manager.configFile "\"./sumocfg/freeway.sumo.cfg\""
param *.manager.host "\"localhost\""
param *.manager.margin 25
param *.manager.moduleDisplayString "\"\""
param *.manager.moduleName "\"node\""
param *.manager.moduleType "\"Car\""
param *.manager.updateInterval 0.01s
param *.node[*].appl.attackStart 30s
param *.node[*].appl.attackerType 4
param *.node[*].appl.simulationDuration "60 s"
param *.node[*].appl_type "\"SimplePlatooningApp\""
param *.node[*].helper.nCars 8
param *.node[*].helper.nLanes 1
param *.node[*].helper.platoonSize 8
param *.node[*].helper_type "\"PositionHelper\""
param *.node[*].mobility.x 0
param *.node[*].mobility.y 0
param *.node[*].mobility.z 1.895
param *.node[*].prot.attackStart 30s
param *.node[*].prot.attackerType 4
param *.node[*].prot.attackingNode 3
param *.node[*].prot.beaconingInterval 0.1s
param *.node[*].prot.fakeAcc "(4 == 4)"
param *.node[*].prot.fakePos "(4 == 2)"
param *.node[*].prot.fakeSpeed "(4 == 3)"
param *.node[*].prot.maliciousAcc "-30 mpss"
param *.node[*].prot.maliciousSpeed 150kmph
param *.node[*].prot.packetSize 200
param *.node[*].prot.priority 2
param *.node[*].prot.shiftX "7 m"
param *.node[*].prot.useControllerAcceleration true
param *.node[*].protocol_type "\"SimplePlatooningBeaconing\""
param *.node[*].scenario.accHeadway 0.1s
param *.node[*].scenario.caccC1 0.5
param *.node[*].scenario.caccOmegaN "0.2 Hz"
param *.node[*].scenario.caccSpacing 20m
param *.node[*].scenario.caccXi 1
param *.node[*].scenario.controller "\"PLOEG\""
param *.node[*].scenario.engineTau "0.5 s"
param *.node[*].scenario.leaderHeadway 1.2s
param *.node[*].scenario.leaderSpeed 50kmph
param *.node[*].scenario.ploegH 0.5s
param *.node[*].scenario.ploegKd 0.7
param *.node[*].scenario.ploegKp 0.2
param *.node[*].scenario.useRealisticEngine false
param *.node[*].scenario_type "\"SinusoidalScenario\""
param *.node[*].unicast.packetLossRate 0
param *.obstacles.debug false
param *.playgroundSizeX 65000m
param *.playgroundSizeY 25000m
param *.playgroundSizeZ 50m
param *.world.use2D false
param *.world.useTorus false

vector 0  scenario.node[0].appl  distance  ETV
vector 1  scenario.node[0].appl  relativeSpeed  ETV
vector 2  scenario.node[0].appl  nodeId  ETV
vector 6  scenario.node[0].appl  acceleration  ETV
vector 7  scenario.node[0].appl  controllerAcceleration  ETV
vector 3  scenario.node[0].appl  speed  ETV
vector 4  scenario.node[0].appl  posx  ETV
vector 5  scenario.node[0].appl  posy  ETV
vector 22  scenario.node[1].appl  distance  ETV
vector 23  scenario.node[1].appl  relativeSpeed  ETV
vector 24  scenario.node[1].appl  nodeId  ETV
vector 28  scenario.node[1].appl  acceleration  ETV
vector 29  scenario.node[1].appl  controllerAcceleration  ETV
vector 25  scenario.node[1].appl  speed  ETV
vector 26  scenario.node[1].appl  posx  ETV
vector 27  scenario.node[1].appl  posy  ETV
vector 44  scenario.node[2].appl  distance  ETV
vector 45  scenario.node[2].appl  relativeSpeed  ETV
vector 46  scenario.node[2].appl  nodeId  ETV
vector 50  scenario.node[2].appl  acceleration  ETV
vector 51  scenario.node[2].appl  controllerAcceleration  ETV
vector 47  scenario.node[2].appl  speed  ETV
vector 48  scenario.node[2].appl  posx  ETV
vector 49  scenario.node[2].appl  posy  ETV
vector 66  scenario.node[3].appl  distance  ETV
vector 67  scenario.node[3].appl  relativeSpeed  ETV
vector 68  scenario.node[3].appl  nodeId  ETV
vector 72  scenario.node[3].appl  acceleration  ETV
vector 73  scenario.node[3].appl  controllerAcceleration  ETV
vector 69  scenario.node[3].appl  speed  ETV
vector 70  scenario.node[3].appl  posx  ETV
vector 71  scenario.node[3].appl  posy  ETV
vector 88  scenario.node[4].appl  distance  ETV
vector 89  scenario.node[4].appl  relativeSpeed  ETV
vector 90  scenario.node[4].appl  nodeId  ETV
vector 94  scenario.node[4].appl  acceleration  ETV
vector 95  scenario.node[4].appl  controllerAcceleration  ETV
vector 91  scenario.node[4].appl  speed  ETV
vector 92  scenario.node[4].appl  posx  ETV
vector 93  scenario.node[4].appl  posy  ETV
vector 110  scenario.node[5].appl  distance  ETV
vector 111  scenario.node[5].appl  relativeSpeed  ETV
vector 112  scenario.node[5].appl  nodeId  ETV
vector 116  scenario.node[5].appl  acceleration  ETV
vector 117  scenario.node[5].appl  controllerAcceleration  ETV
vector 113  scenario.node[5].appl  speed  ETV
vector 114  scenario.node[5].appl  posx  ETV
vector 115  scenario.node[5].appl  posy  ETV
vector 132  scenario.node[6].appl  distance  ETV
vector 133  scenario.node[6].appl  relativeSpeed  ETV
vector 134  scenario.node[6].appl  nodeId  ETV
vector 138  scenario.node[6].appl  acceleration  ETV
vector 139  scenario.node[6].appl  controllerAcceleration  ETV
vector 135  scenario.node[6].appl  speed  ETV
vector 136  scenario.node[6].appl  posx  ETV
vector 137  scenario.node[6].appl  posy  ETV
vector 154  scenario.node[7].appl  distance  ETV
vector 155  scenario.node[7].appl  relativeSpeed  ETV
vector 156  scenario.node[7].appl  nodeId  ETV
vector 160  scenario.node[7].appl  acceleration  ETV
vector 161  scenario.node[7].appl  controllerAcceleration  ETV
vector 157  scenario.node[7].appl  speed  ETV
vector 158  scenario.node[7].appl  posx  ETV
vector 159  scenario.node[7].appl  posy  ETV
vector 168  scenario.node[7].prot  frontDelay  ETV
vector 166  scenario.node[7].prot  frontDelayId  ETV
vector 146  scenario.node[6].prot  frontDelay  ETV
vector 144  scenario.node[6].prot  frontDelayId  ETV
vector 35  scenario.node[1].prot  leaderDelay  ETV
vector 33  scenario.node[1].prot  leaderDelayId  ETV
vector 36  scenario.node[1].prot  frontDelay  ETV
vector 34  scenario.node[1].prot  frontDelayId  ETV
vector 57  scenario.node[2].prot  leaderDelay  ETV
vector 55  scenario.node[2].prot  leaderDelayId  ETV
vector 79  scenario.node[3].prot  leaderDelay  ETV
vector 77  scenario.node[3].prot  leaderDelayId  ETV
vector 101  scenario.node[4].prot  leaderDelay  ETV
vector 99  scenario.node[4].prot  leaderDelayId  ETV
vector 123  scenario.node[5].prot  leaderDelay  ETV
vector 121  scenario.node[5].prot  leaderDelayId  ETV
vector 145  scenario.node[6].prot  leaderDelay  ETV
vector 143  scenario.node[6].prot  leaderDelayId  ETV
vector 167  scenario.node[7].prot  leaderDelay  ETV
vector 165  scenario.node[7].prot  leaderDelayId  ETV
vector 102  scenario.node[4].prot  frontDelay  ETV
vector 100  scenario.node[4].prot  frontDelayId  ETV
vector 80  scenario.node[3].prot  frontDelay  ETV
vector 78  scenario.node[3].prot  frontDelayId  ETV
vector 124  scenario.node[5].prot  frontDelay  ETV
vector 122  scenario.node[5].prot  frontDelayId  ETV
vector 58  scenario.node[2].prot  frontDelay  ETV
vector 56  scenario.node[2].prot  frontDelayId  ETV
vector 8  scenario.node[0].prot  nodeId  ETV
vector 9  scenario.node[0].prot  busyTime  ETV
vector 10  scenario.node[0].prot  collisions  ETV
vector 30  scenario.node[1].prot  nodeId  ETV
vector 31  scenario.node[1].prot  busyTime  ETV
vector 32  scenario.node[1].prot  collisions  ETV
vector 52  scenario.node[2].prot  nodeId  ETV
vector 53  scenario.node[2].prot  busyTime  ETV
vector 54  scenario.node[2].prot  collisions  ETV
vector 74  scenario.node[3].prot  nodeId  ETV
vector 75  scenario.node[3].prot  busyTime  ETV
vector 76  scenario.node[3].prot  collisions  ETV
vector 96  scenario.node[4].prot  nodeId  ETV
vector 97  scenario.node[4].prot  busyTime  ETV
vector 98  scenario.node[4].prot  collisions  ETV
vector 118  scenario.node[5].prot  nodeId  ETV
vector 119  scenario.node[5].prot  busyTime  ETV
vector 120  scenario.node[5].prot  collisions  ETV
vector 140  scenario.node[6].prot  nodeId  ETV
vector 141  scenario.node[6].prot  busyTime  ETV
vector 142  scenario.node[6].prot  collisions  ETV
vector 162  scenario.node[7].prot  nodeId  ETV
vector 163  scenario.node[7].prot  busyTime  ETV
vector 164  scenario.node[7].prot  collisions  ETV
7	11091 13860 232 328174 1.11 59.91 589 -1.5 1.5 -14.445969899918 993.24092361736
6	24951 18587 232 328174 1.11 59.91 589 -1.472274679513 1.4513434175798 -12.507264912644 675.29835211523
5	43538 12081 232 328174 1.11 59.91 589 36.55 36.55 21527.95 786846.5725
4	55619 17910 232 328174 1.11 59.91 589 126.89329872118 947.87609721912 317339.35608429 204023311.44887
3	73529 17901 232 328174 1.11 59.91 589 12.599076970844 15.853603639796 8223.2832500118 115251.79065057
1	91430 9725 232 328174 1.11 59.91 589 0 0 0 0
0	101155 10314 232 328174 1.11 59.91 589 -1 -1 -589 589
2	111469 9725 232 328174 1.11 59.91 589 0 0 0 0
10	121194 858 5168 328662 2 60 59 0 0 0 0
9	122052 1154 5168 328662 2 60 59 0.023297 0.02625 1.545797 0.040508375209
8	123206 799 5168 328662 2 60 59 0 0 0 0
29	124005 19146 233 328175 1.11 59.91 589 -1.5368749871319 1.5234425498771 -12.72641687768 745.33461384525
28	143151 19252 233 328175 1.11 59.91 589 -1.4452178804923 1.3764990684079 -6.6049384798351 524.2704716315
27	162403 12670 233 328175 1.11 59.91 589 36.55 36.55 21527.95 786846.5725
26	175073 18493 233 328175 1.11 59.91 589 113.94885597229 935.34174543355 309691.25160752 195891356.2802
25	193566 18507 233 328175 1.11 59.91 589 12.778392598173 15.691136952006 8227.5958872172 115280.53463888
23	212073 19535 233 328175 1.11 59.91 589 -0.73571924772851 0.72027334762811 -4.1875645562819 148.41820739701
22	231608 18499 233 328175 1.11 59.91 589 8.3392955110388 9.8806061808822 5292.1907295202 47652.652888949
24	250107 10314 233 328175 1.11 59.91 589 1 1 589 589
36	260421 23682 1034 328420 1.262217338518 59.96221565335 588 0.099987318871 0.100012685813 58.799997264748 5.8799994598001
35	284103 23682 1034 328420 1.262217338518 59.96221565335 588 0.099987318871 0.100012685813 58.799997264748 5.8799994598001
34	307785 16102 1034 328420 1.262217338518 59.96221565335 588 1 1 588 588
33	323887 16102 1034 328420 1.262217338518 59.96221565335 588 1 1 588 588
32	339989 858 5169 328663 2 60 59 0 0 0 0
31	340847 1213 5169 328663 2 60 59 0.023296 0.02625 1.545796 0.040508328616
30	342060 858 5169 328663 2 60 59 1 1 59 59
51	342918 19219 234 328176 1.11 59.91 589 -1.5020342158272 1.436038308506 -6.1842146588397 569.79583909507
50	362137 19322 234 328176 1.11 59.91 589 -1.3544328151898 1.2376519281009 -0.037533361098241 400.19243949583
49	381459 12670 234 328176 1.11 59.91 589 36.55 36.55 21527.95 786846.5725
48	394129 18504 234 328176 1.11 59.91 589 101.00441322327 922.44094192486 302042.91182584 187956506.76084
47	412633 18501 234 328176 1.11 59.91 589 12.923201106749 15.56295613195 8228.2620775382 115225.74290588
45	431134 19527 234 328176 1.11 59.91 589 -0.68794286044842 0.6429689093358 -0.60014093618951 109.41735064252
44	450661 18492 234 328176 1.11 59.91 589 8.4283565023677 9.7975792107476 5292.3531054834 47631.216349819
46	469153 10314 234 328176 1.11 59.91 589 2 2 1178 2356
58	479467 23709 1312 328707 1.30259672712 60.002609049291 588 0.099987574637 0.100012420241 58.800011272087 5.8800022611011
57	503176 23708 1040 328426 1.262217381696 59.962215696273 588 0.099987318741 0.100012685744 58.799997264493 5.8799994597491
56	526884 16117 1312 328707 1.30259672712 60.002609049291 588 2 2 1176 2352
55	543001 16108 1040 328426 1.262217381696 59.962215696273 588 2 2 1176 2352
54	559109 858 5170 328664 2 60 59 0 0 0 0
53	559967 1213 5170 328664 2 60 59 0.023297 0.02625 1.545797 0.040508375209
52	561180 858 5170 328664 2 60 59 2 2 118 236
73	562038 19315 235 328177 1.11 59.91 589 -1.4075543327505 1.2908483464111 0.64185720651525 434.88655998536
72	581353 19420 235 328177 1.11 59.91 589 -1.2452155917131 1.0915562624131 4.9285862094523 307.81624399845
71	600773 12670 235 328177 1.11 59.91 589 36.55 36.55 21527.95 786846.5725
70	613443 18499 235 328177 1.11 59.91 589 88.059966659546 909.26572419881 294395.40524176 180221486.91811
69	631942 18499 235 328177 1.11 59.91 589 13.038877199405 15.461370471298 8226.1253075274 115110.14613268
67	650441 19575 235 328177 1.11 59.91 589 -0.63471135531953 0.57024563833402 2.1371453443596 83.993749971269
66	670016 18497 235 328177 1.11 59.91 589 8.4909339076846 9.7431429368315 5291.4638486761 47599.414676374
68	688513 10314 235 328177 1.11 59.91 589 3 3 1767 5301
80	698827 23680 1176 328562 1.28787351123 59.987884827817 588 0.099987567324 0.100012429004 58.800010266503 5.8800020599847
79	722507 23708 1046 328432 1.262217424874 59.962215740138 588 0.099987318732 0.100012685585 58.79999726518 5.8799994598865
78	746215 16096 1176 328562 1.28787351123 59.987884827817 588 3 3 1764 5292
77	762311 16117 1046 328432 1.262217424874 59.962215740138 588 3 3 1764 5292
76	778428 858 5171 328665 2 60 59 0 0 0 0
75	779286 1213 5171 328665 2 60 59 0.023297 0.02625 1.545797 0.040508375209
74	780499 858 5171 328665 2 60 59 3 3 177 531
95	781357 17878 236 328178 1.11 59.91 589 -21.925857815686 1.5 -800.88855540927 14495.629106459
94	799235 18168 236 328178 1.11 59.91 589 -9 1.4999999998768 3.7540966105831 1628.7413935597
93	817403 12670 236 328178 1.11 59.91 589 36.55 36.55 21527.95 786846.5725
92	830073 18511 236 328178 1.11 59.91 589 75.115523910522 745.61502372038 249697.06962919 123918753.89431
91	848584 17586 236 328178 1.11 59.91 589 0 18.510185154798 6718.9009886979 94902.824461174
89	866170 19214 236 328178 1.11 59.91 589 -5.3923413161782 14.739278120773 1507.1750329674 21879.39807549
88	885384 18498 236 328178 1.11 59.91 589 8.5442785581827 184.07681654843 42312.191121931 6207021.6655968
90	903882 10314 236 328178 1.11 59.91 589 4 4 2356 9424
102	914196 24279 1108 328506 1.276579468052 59.976591286102 588 0.09998757156 0.100012434033 58.800010767966 5.8800021602772
101	938475 24267 1052 328438 1.262217468052 59.962216286089 588 0.09998732359 0.100012690084 58.799997767953 5.8799995604411
100	962742 16691 1108 328506 1.276579468052 59.976591286102 588 4 4 2352 9408
99	979433 16110 1052 328438 1.262217468052 59.962216286089 588 4 4 2352 9408
98	995543 858 5172 328666 2 60 59 0 0 0 0
97	996401 1213 5172 328666 2 60 59 0.023297 0.02625 1.545797 0.040508375209
96	997614 858 5172 328666 2 60 59 4 4 236 944
117	998472 19886 237 328179 1.11 59.91 589 -19.054303635256 1.7944439739165 -756.65880758304 12543.558018329
116	1018358 18750 237 328179 1.11 59.91 589 -9 1.6956759169136 -1.252182112191 1592.7825078876
115	1037108 13259 237 328179 1.11 59.91 589 36.55 36.55 21527.95 786846.5725
114	1050367 19095 237 328179 1.11 59.91 589 62.171077346802 732.69004993297 242570.46850444 118021813.59055
113	1069462 18176 237 328179 1.11 59.91 589 0 18.407093657671 6719.0680737598 94749.319617404
111	1087638 19166 237 328179 1.11 59.91 589 -3.1888841778457 0.73992659064746 -0.20462602800695 212.82052205776
110	1106804 19084 237 328179 1.11 59.91 589 4.1196387275709 11.129958896514 4770.6044677116 41053.166444719
112	1125888 10903 237 328179 1.11 59.91 589 5 5 2945 14725
124	1136791 24281 1244 328624 1.297503597586 59.997502416959 588 0.099987540831 0.100012469729 58.799997769289 5.8799995606895
123	1161072 24316 1058 328444 1.26221751123 59.962216329234 588 0.099987323645 0.100012690085 58.79999776792 5.8799995604345
122	1185388 16701 1244 328624 1.297503597586 59.997502416959 588 5 5 2940 14700
121	1202089 16723 1058 328444 1.26221751123 59.962216329234 588 5 5 2940 14700
120	1218812 917 5173 328667 2 60 59 0 0 0 0
119	1219729 1272 5173 328667 2 60 59 0.023297 0.02625 1.545797 0.040508375209
118	1221001 917 5173 328667 2 60 59 5 5 295 1475
139	1221918 19895 238 328180 1.11 59.91 589 -16.944576799778 2.000572710289 -720.34665290891 11139.666330158
138	1241813 18746 238 328180 1.11 59.91 589 -9 1.8755347918898 -2.1478663639839 1541.2909448266
137	1260559 13259 238 328180 1.11 59.91 589 36.55 36.55 21527.95 786846.5725
136	1273818 19098 238 328180 1.11 59.91 589 49.22663269043 719.80359213394 235486.88335786 112342544.2891
135	1292916 18194 238 328180 1.11 59.91 589 0 18.316353704865 6719.6346426994 94637.799415693
133	1311110 19143 238 328180 1.11 59.91 589 -3.4569643857345 0.73535496785816 -0.55404711849651 228.40462179295
132	1330253 19097 238 328180 1.11 59.91 589 3.7192265809012 11.08811644211 4727.59648074 40659.727996497
134	1349350 10903 238 328180 1.11 59.91 589 6 6 3534 21204
146	1360253 24283 970 328350 1.247595122628 59.947592936954 588 0.099987486787 0.100012513679 58.799996764242 5.8799993596841
145	1384536 24283 1064 328450 1.262217554408 59.962216372224 588 0.099987323647 0.100012690084 58.799997767732 5.8799995603969
144	1408819 16697 970 328350 1.247595122628 59.947592936954 588 6 6 3528 21168
143	1425516 16692 1064 328450 1.262217554408 59.962216372224 588 6 6 3528 21168
142	1442208 917 5174 328668 2 60 59 0 0 0 0
141	1443125 1272 5174 328668 2 60 59 0.023297 0.02625 1.545797 0.040508375209
140	1444397 917 5174 328668 2 60 59 6 6 354 2124
161	1445314 19929 239 328181 1.11 59.91 589 -15.258702858575 2.155176327329 -688.60774924407 10067.431306989
160	1465243 18803 239 328181 1.11 59.91 589 -9 2.0161436451099 0.60403881504788 1479.487763579
159	1484046 13259 239 328181 1.11 59.91 589 36.55 36.55 21527.95 786846.5725
158	1497305 19093 239 328181 1.11 59.91 589 36.282188987732 706.86322220071 228434.28998786 106867638.94834
157	1516398 18174 239 328181 1.11 59.91 589 0 18.236901132972 6719.7334538571 94533.147781028
155	1534572 19153 239 328181 1.11 59.91 589 -3.6454048575978 0.78699879304891 -0.077332493998025 238.10397366883
154	1553725 19098 239 328181 1.11 59.91 589 3.4373487752487 11.049278533781 4696.5953436856 40387.680694268
156	1572823 10903 239 328181 1.11 59.91 589 7 7 4123 28861
168	1583726 24276 832 328218 1.212136993094 59.912134807821 588 0.099987638939 0.100012331005 58.799996764643 5.8799993594643
167	1608002 24281 1070 328456 1.262217597586 59.962216415364 588 0.099987323647 0.100012690085 58.799997767694 5.8799995603893
166	1632283 16694 832 328218 1.212136993094 59.912134807821 588 7 7 4116 28812
165	1648977 16692 1070 328456 1.262217597586 59.962216415364 588 7 7 4116 28812
164	1665669 917 5175 328669 2 60 59 0 0 0 0
163	1666586 1272 5175 328669 2 60 59 0.023297 0.02625 1.545797 0.040508375209
162	1667858 917 5175 328669 2 60 59 7 7 413 2891
