file 969464 1512144109                                          
version 2
run SinusoidalAccInjectionAttack-233-20171201-17:01:32-67154
attr CACCSpacing 20
attr attackAcc 10
attr attackPos 7
attr attackSpeed 150
attr attackStart 30
attr attacker 4
attr beaconInterval 0.1
attr configname SinusoidalAccInjectionAttack
attr controller 2
attr datetime 20171201-17:01:32
attr experiment SinusoidalAccInjectionAttack
attr fakeAcc "(4 == 4)"
attr fakePos "(4 == 2)"
attr fakeSpeed "(4 == 3)"
attr inifile omnetpp_233.ini
attr iterationvars "$attacker=4, $attackSpeed=150, $attackPos=7, $attackAcc=10, $leaderSpeed=150, $controller=2, $CACCSpacing=20, $sController=\"PLOEG\", $attackStart=30, $0=2, $1=0.5, $nCars=8, $platoonSize=8, $nLanes=1, $beaconInterval=0.1, $priority=2, $packetSize=200, $ploegH=0.5, $leaderHeadway=1.2, $fakeSpeed=(4 == 3), $fakeAcc=(4 == 4), $fakePos=(4 == 2)"
attr iterationvarsf attacker=4,attackSpeed=150,attackPos=7,attackAcc=10,leaderSpeed=150,controller=2,CACCSpacing=20,sController=PLOEG,attackStart=30,2,0.5,nCars=8,platoonSize=8,nLanes=1,beaconInterval=0.1,priority=2,packetSize=200,ploegH=0.5,leaderHeadway=1.2,fakeSpeed=(4_==_3),fakeAcc=(4_==_4),fakePos=(4_==_2)-
attr leaderHeadway 1.2
attr leaderSpeed 150
attr measurement "$attacker=4, $attackSpeed=150, $attackPos=7, $attackAcc=10, $leaderSpeed=150, $controller=2, $CACCSpacing=20, $sController=\"PLOEG\", $attackStart=30, $0=2, $1=0.5, $nCars=8, $platoonSize=8, $nLanes=1, $beaconInterval=0.1, $priority=2, $packetSize=200, $ploegH=0.5, $leaderHeadway=1.2, $fakeSpeed=(4 == 3), $fakeAcc=(4 == 4), $fakePos=(4 == 2)"
attr nCars 8
attr nLanes 1
attr network scenario
attr packetSize 200
attr platoonSize 8
attr ploegH 0.5
attr priority 2
attr processid 67154
attr repetition 3
attr replication #3
attr resultdir results
attr runnumber 233
attr sController "\"PLOEG\""
attr seedset 3
param **.coreDebug false
param **.debug false
param **.headway 0.1s
param **.numberOfCars 8
param **.numberOfCarsPerPlatoon 8
param **.numberOfLanes 1
param **.numericController 2
param **.traffic.nCars 8
param **.traffic.nLanes 1
param **.traffic.platoonInsertDistance 2m
param **.traffic.platoonInsertHeadway 0.5s
param **.traffic.platoonInsertSpeed 150kmph
param **.traffic.platoonInsertTime "1 s"
param **.traffic.platoonLeaderHeadway 1.2s
param **.traffic.platoonSize 8
param **.traffic.platooningVType "\"vtypeauto\""
param **.traffic_type "\"PlatoonsTrafficManager\""
param *.**.nic.mac1609_4.bitrate 6Mbps
param *.**.nic.mac1609_4.txPower 100mW
param *.**.nic.mac1609_4.useServiceChannel false
param *.**.nic.phy80211p.analogueModels "xmldoc(\"config.xml\")"
param *.**.nic.phy80211p.decider "xmldoc(\"config.xml\")"
param *.**.nic.phy80211p.maxTXPower 100mW
param *.**.nic.phy80211p.sensitivity -94dBm
param *.**.nic.phy80211p.thermalNoise -95dBm
param *.**.nic.phy80211p.usePropagationDelay true
param *.**.nic.phy80211p.useThermalNoise true
param *.annotations.draw false
param *.connectionManager.alpha 2.0
param *.connectionManager.carrierFrequency "5.890e9 Hz"
param *.connectionManager.pMax 100mW
param *.connectionManager.sat -94dBm
param *.connectionManager.sendDirect true
param *.manager.autoShutdown true
param *.manager.commandLine "\"sumo --remote-port $port --seed $seed --configuration-file $configFile\""
param *.manager.configFile "\"./sumocfg/freeway.sumo.cfg\""
param *.manager.host "\"localhost\""
param *.manager.margin 25
param *.manager.moduleDisplayString "\"\""
param *.manager.moduleName "\"node\""
param *.manager.moduleType "\"Car\""
param *.manager.updateInterval 0.01s
param *.node[*].appl.attackStart 30s
param *.node[*].appl.attackerType 4
param *.node[*].appl.simulationDuration "60 s"
param *.node[*].appl_type "\"SimplePlatooningApp\""
param *.node[*].helper.nCars 8
param *.node[*].helper.nLanes 1
param *.node[*].helper.platoonSize 8
param *.node[*].helper_type "\"PositionHelper\""
param *.node[*].mobility.x 0
param *.node[*].mobility.y 0
param *.node[*].mobility.z 1.895
param *.node[*].prot.attackStart 30s
param *.node[*].prot.attackerType 4
param *.node[*].prot.attackingNode 3
param *.node[*].prot.beaconingInterval 0.1s
param *.node[*].prot.fakeAcc "(4 == 4)"
param *.node[*].prot.fakePos "(4 == 2)"
param *.node[*].prot.fakeSpeed "(4 == 3)"
param *.node[*].prot.maliciousAcc "10 mpss"
param *.node[*].prot.maliciousSpeed 150kmph
param *.node[*].prot.packetSize 200
param *.node[*].prot.priority 2
param *.node[*].prot.shiftX "7 m"
param *.node[*].prot.useControllerAcceleration true
param *.node[*].protocol_type "\"SimplePlatooningBeaconing\""
param *.node[*].scenario.accHeadway 0.1s
param *.node[*].scenario.caccC1 0.5
param *.node[*].scenario.caccOmegaN "0.2 Hz"
param *.node[*].scenario.caccSpacing 20m
param *.node[*].scenario.caccXi 1
param *.node[*].scenario.controller "\"PLOEG\""
param *.node[*].scenario.engineTau "0.5 s"
param *.node[*].scenario.leaderHeadway 1.2s
param *.node[*].scenario.leaderSpeed 150kmph
param *.node[*].scenario.ploegH 0.5s
param *.node[*].scenario.ploegKd 0.7
param *.node[*].scenario.ploegKp 0.2
param *.node[*].scenario.useRealisticEngine false
param *.node[*].scenario_type "\"SinusoidalScenario\""
param *.node[*].unicast.packetLossRate 0
param *.obstacles.debug false
param *.playgroundSizeX 65000m
param *.playgroundSizeY 25000m
param *.playgroundSizeZ 50m
param *.world.use2D false
param *.world.useTorus false

vector 0  scenario.node[0].appl  distance  ETV
vector 1  scenario.node[0].appl  relativeSpeed  ETV
vector 2  scenario.node[0].appl  nodeId  ETV
vector 6  scenario.node[0].appl  acceleration  ETV
vector 7  scenario.node[0].appl  controllerAcceleration  ETV
vector 3  scenario.node[0].appl  speed  ETV
vector 4  scenario.node[0].appl  posx  ETV
vector 5  scenario.node[0].appl  posy  ETV
vector 22  scenario.node[1].appl  distance  ETV
vector 23  scenario.node[1].appl  relativeSpeed  ETV
vector 24  scenario.node[1].appl  nodeId  ETV
vector 28  scenario.node[1].appl  acceleration  ETV
vector 29  scenario.node[1].appl  controllerAcceleration  ETV
vector 25  scenario.node[1].appl  speed  ETV
vector 26  scenario.node[1].appl  posx  ETV
vector 27  scenario.node[1].appl  posy  ETV
vector 44  scenario.node[2].appl  distance  ETV
vector 45  scenario.node[2].appl  relativeSpeed  ETV
vector 46  scenario.node[2].appl  nodeId  ETV
vector 50  scenario.node[2].appl  acceleration  ETV
vector 51  scenario.node[2].appl  controllerAcceleration  ETV
vector 47  scenario.node[2].appl  speed  ETV
vector 48  scenario.node[2].appl  posx  ETV
vector 49  scenario.node[2].appl  posy  ETV
vector 66  scenario.node[3].appl  distance  ETV
vector 67  scenario.node[3].appl  relativeSpeed  ETV
vector 68  scenario.node[3].appl  nodeId  ETV
vector 72  scenario.node[3].appl  acceleration  ETV
vector 73  scenario.node[3].appl  controllerAcceleration  ETV
vector 69  scenario.node[3].appl  speed  ETV
vector 70  scenario.node[3].appl  posx  ETV
vector 71  scenario.node[3].appl  posy  ETV
vector 88  scenario.node[4].appl  distance  ETV
vector 89  scenario.node[4].appl  relativeSpeed  ETV
vector 90  scenario.node[4].appl  nodeId  ETV
vector 94  scenario.node[4].appl  acceleration  ETV
vector 95  scenario.node[4].appl  controllerAcceleration  ETV
vector 91  scenario.node[4].appl  speed  ETV
vector 92  scenario.node[4].appl  posx  ETV
vector 93  scenario.node[4].appl  posy  ETV
vector 110  scenario.node[5].appl  distance  ETV
vector 111  scenario.node[5].appl  relativeSpeed  ETV
vector 112  scenario.node[5].appl  nodeId  ETV
vector 116  scenario.node[5].appl  acceleration  ETV
vector 117  scenario.node[5].appl  controllerAcceleration  ETV
vector 113  scenario.node[5].appl  speed  ETV
vector 114  scenario.node[5].appl  posx  ETV
vector 115  scenario.node[5].appl  posy  ETV
vector 132  scenario.node[6].appl  distance  ETV
vector 133  scenario.node[6].appl  relativeSpeed  ETV
vector 134  scenario.node[6].appl  nodeId  ETV
vector 138  scenario.node[6].appl  acceleration  ETV
vector 139  scenario.node[6].appl  controllerAcceleration  ETV
vector 135  scenario.node[6].appl  speed  ETV
vector 136  scenario.node[6].appl  posx  ETV
vector 137  scenario.node[6].appl  posy  ETV
vector 154  scenario.node[7].appl  distance  ETV
vector 155  scenario.node[7].appl  relativeSpeed  ETV
vector 156  scenario.node[7].appl  nodeId  ETV
vector 160  scenario.node[7].appl  acceleration  ETV
vector 161  scenario.node[7].appl  controllerAcceleration  ETV
vector 157  scenario.node[7].appl  speed  ETV
vector 158  scenario.node[7].appl  posx  ETV
vector 159  scenario.node[7].appl  posy  ETV
vector 35  scenario.node[1].prot  leaderDelay  ETV
vector 33  scenario.node[1].prot  leaderDelayId  ETV
vector 36  scenario.node[1].prot  frontDelay  ETV
vector 34  scenario.node[1].prot  frontDelayId  ETV
vector 57  scenario.node[2].prot  leaderDelay  ETV
vector 55  scenario.node[2].prot  leaderDelayId  ETV
vector 79  scenario.node[3].prot  leaderDelay  ETV
vector 77  scenario.node[3].prot  leaderDelayId  ETV
vector 101  scenario.node[4].prot  leaderDelay  ETV
vector 99  scenario.node[4].prot  leaderDelayId  ETV
vector 123  scenario.node[5].prot  leaderDelay  ETV
vector 121  scenario.node[5].prot  leaderDelayId  ETV
vector 145  scenario.node[6].prot  leaderDelay  ETV
vector 143  scenario.node[6].prot  leaderDelayId  ETV
vector 167  scenario.node[7].prot  leaderDelay  ETV
vector 165  scenario.node[7].prot  leaderDelayId  ETV
vector 168  scenario.node[7].prot  frontDelay  ETV
vector 166  scenario.node[7].prot  frontDelayId  ETV
vector 58  scenario.node[2].prot  frontDelay  ETV
vector 56  scenario.node[2].prot  frontDelayId  ETV
vector 124  scenario.node[5].prot  frontDelay  ETV
vector 122  scenario.node[5].prot  frontDelayId  ETV
vector 80  scenario.node[3].prot  frontDelay  ETV
vector 78  scenario.node[3].prot  frontDelayId  ETV
vector 146  scenario.node[6].prot  frontDelay  ETV
vector 144  scenario.node[6].prot  frontDelayId  ETV
vector 102  scenario.node[4].prot  frontDelay  ETV
vector 100  scenario.node[4].prot  frontDelayId  ETV
vector 8  scenario.node[0].prot  nodeId  ETV
vector 9  scenario.node[0].prot  busyTime  ETV
vector 10  scenario.node[0].prot  collisions  ETV
vector 30  scenario.node[1].prot  nodeId  ETV
vector 31  scenario.node[1].prot  busyTime  ETV
vector 32  scenario.node[1].prot  collisions  ETV
vector 52  scenario.node[2].prot  nodeId  ETV
vector 53  scenario.node[2].prot  busyTime  ETV
vector 54  scenario.node[2].prot  collisions  ETV
vector 74  scenario.node[3].prot  nodeId  ETV
vector 75  scenario.node[3].prot  busyTime  ETV
vector 76  scenario.node[3].prot  collisions  ETV
vector 96  scenario.node[4].prot  nodeId  ETV
vector 97  scenario.node[4].prot  busyTime  ETV
vector 98  scenario.node[4].prot  collisions  ETV
vector 118  scenario.node[5].prot  nodeId  ETV
vector 119  scenario.node[5].prot  busyTime  ETV
vector 120  scenario.node[5].prot  collisions  ETV
vector 140  scenario.node[6].prot  nodeId  ETV
vector 141  scenario.node[6].prot  busyTime  ETV
vector 142  scenario.node[6].prot  collisions  ETV
vector 162  scenario.node[7].prot  nodeId  ETV
vector 163  scenario.node[7].prot  busyTime  ETV
vector 164  scenario.node[7].prot  collisions  ETV
7	11095 8145 232 189846 1.11 35.11 341 -1.5 1.5 -11.677980802834 541.608830972
6	19240 10715 232 189846 1.11 35.11 341 -1.4722746794739 1.4513407705138 -12.909525951162 366.44298648907
5	29955 6873 232 189846 1.11 35.11 341 36.55 36.55 12463.55 455542.7525
4	36828 10248 232 189846 1.11 35.11 341 231.34595756491 1652.0744475004 321530.34458458 360851413.45202
3	47076 10232 232 189846 1.11 35.11 341 40.376864578797 43.631381416411 14248.499548111 595618.20835682
1	57308 5509 232 189846 1.11 35.11 341 0 0 0 0
0	62817 5850 232 189846 1.11 35.11 341 -1 -1 -341 341
2	68667 5509 232 189846 1.11 35.11 341 0 0 0 0
10	74176 483 5056 189100 2 35 34 0 0 0 0
9	74659 884 5056 189100 2 35 34 0.022753592544 0.026261977296 0.889015349335 0.023257406846884
8	75543 449 5056 189100 2 35 34 0 0 0 0
29	75992 10851 233 189847 1.11 35.11 341 -1.5368749262844 1.5 -13.507687468666 401.28373372487
28	86843 11071 233 189847 1.11 35.11 341 -1.4452178058612 1.3654287328961 -8.7739604838468 283.86811056837
27	97914 7214 233 189847 1.11 35.11 341 36.55 36.55 12463.55 455542.7525
26	105128 10582 233 189847 1.11 35.11 341 204.51262931824 1625.7360456612 312353.74442549 343804595.70363
25	115710 10581 233 189847 1.11 35.11 341 40.55973106444 43.468914433497 14253.601006744 595989.43436856
23	126291 11226 233 189847 1.11 35.11 341 -0.73571915706259 0.71676475253904 -4.9723633737227 80.169703108556
22	137517 10600 233 189847 1.11 35.11 341 22.248587407098 23.769494698393 7812.7021882575 179054.7069267
24	148117 5850 233 189847 1.11 35.11 341 1 1 341 341
36	153967 13582 836 189894 1.269559416672 35.169563212152 340 0.099987305668 0.100000381456 34.000004122646 3.4000008258476
35	167549 13582 836 189894 1.269559416672 35.169563212152 340 0.099987305668 0.100000381456 34.000004122646 3.4000008258476
34	181131 9192 836 189894 1.269559416672 35.169563212152 340 1 1 340 340
33	190323 9192 836 189894 1.269559416672 35.169563212152 340 1 1 340 340
32	199515 483 5057 189101 2 35 34 0 0 0 0
31	199998 919 5057 189101 2 35 34 0.022753682051 0.026261975006 0.88901543739 0.02325741084381
30	200917 483 5057 189101 2 35 34 1 1 34 34
51	201400 11071 234 189848 1.11 35.11 341 -1.5014229181894 1.4232037666954 -8.5965861790592 308.04265423254
50	212471 11127 234 189848 1.11 35.11 341 -1.3549667070698 1.2307200778807 -2.5109690801251 216.05444114819
49	223598 7214 234 189848 1.11 35.11 341 36.55 36.55 12463.55 455542.7525
48	230812 10589 234 189848 1.11 35.11 341 177.67928581238 1599.0771048275 303179.93032912 327255238.80572
47	241401 10587 234 189848 1.11 35.11 341 40.704065597901 43.341159875552 14255.56612725 596113.33504309
45	251988 11259 234 189848 1.11 35.11 341 -0.68818674150349 0.6394516649137 -1.8773809008104 59.000183017928
44	263247 10579 234 189848 1.11 35.11 341 22.318742583938 23.686627895831 7809.8533987864 178910.94292402
46	273826 5850 234 189848 1.11 35.11 341 2 2 682 1364
58	279676 13550 1046 189547 1.299191580255 35.09919529098 339 0.099987305883 0.100000381726 33.900004037891 3.3900008088961
57	293226 13590 842 189900 1.269559506179 35.169563300972 340 0.099987305846 0.100000381316 34.000004121959 3.4000008257102
56	306816 9179 1046 189547 1.299191580255 35.09919529098 339 2 2 678 1356
55	315995 9203 842 189900 1.269559506179 35.169563300972 340 2 2 680 1360
54	325198 483 5058 189102 2 35 34 0 0 0 0
53	325681 921 5058 189102 2 35 34 0.022753771557 0.026261973211 0.889015526573 0.023257414899976
52	326602 483 5058 189102 2 35 34 2 2 68 136
73	327085 11111 235 189849 1.11 35.11 341 -1.4242142064666 1.2992055922737 -1.7784557174712 239.28460435474
72	338196 11177 235 189849 1.11 35.11 341 -1.2569556889602 1.0979127878883 3.1913248147283 167.4517998279
71	349373 7214 235 189849 1.11 35.11 341 36.55 36.55 12463.55 455542.7525
70	356587 10588 235 189849 1.11 35.11 341 150.84595756531 1572.1200620096 294006.22892029 311198873.77889
69	367175 10589 235 189849 1.11 35.11 341 40.810523055854 43.249311652164 14254.526825461 595999.47134137
67	377764 11201 235 189849 1.11 35.11 341 -0.64807207835033 0.58148247147709 1.0644114798804 47.068052978119
66	388965 10570 235 189849 1.11 35.11 341 22.36995373344 23.640270144515 7809.6806227874 178896.21577866
68	399535 5850 235 189849 1.11 35.11 341 3 3 1023 3069
80	405385 13529 1180 189682 1.300213027787 35.100203593122 339 0.099987144882 0.100000381721 33.899990892501 3.389998179983
79	418914 13585 848 189906 1.269559595685 35.169563390797 340 0.099987305926 0.100000381282 34.000004122278 3.400000825774
78	432499 9161 1180 189682 1.300213027787 35.100203593122 339 3 3 1017 3051
77	441660 9206 848 189906 1.269559595685 35.169563390797 340 3 3 1020 3060
76	450866 483 5059 189103 2 35 34 0 0 0 0
75	451349 918 5059 189103 2 35 34 0.022752682051 0.02626197412 0.889014436435 0.023257365287289
74	452267 483 5059 189103 2 35 34 3 3 102 306
117	452750 11349 237 189851 1.11 35.11 341 -1.1987223850196 1.5 57.114715462685 182.15853583819
116	464099 11552 237 189851 1.11 35.11 341 -1.0507754322902 1.4894526342992 55.947390752697 144.72506369184
115	475651 7555 237 189851 1.11 35.11 341 36.55 36.55 12463.55 455542.7525
114	483206 10931 237 189851 1.11 35.11 341 97.179293441773 1532.5523770806 275914.41746854 281318716.60208
113	494137 10930 237 189851 1.11 35.11 341 40.99758269685 47.250145279941 14397.353865562 608442.43829112
111	505067 11529 237 189851 1.11 35.11 341 -0.53670773947609 3.7983251199498 81.165774070643 216.43764091606
110	516596 10917 237 189851 1.11 35.11 341 22.476797669862 30.834581952465 7934.5383572801 185164.87347278
112	527513 6191 237 189851 1.11 35.11 341 5 5 1705 8525
124	533704 13880 1112 189619 1.299591848774 35.099595513269 339 0.099987262315 0.100000381856 33.900003991661 3.3900007996514
123	547584 13935 860 189918 1.269559774698 35.169563521901 340 0.099987305779 0.100000381459 34.000004074369 3.4000008161922
122	561519 9510 1112 189619 1.299591848774 35.099595513269 339 5 5 1695 8475
121	571029 9544 860 189918 1.269559774698 35.169563521901 340 5 5 1700 8500
120	580573 517 5061 189105 2 35 34 0 0 0 0
119	581090 955 5061 189105 2 35 34 0.022752503038 0.026261989195 0.889014302385 0.023257359502051
118	582045 517 5061 189105 2 35 34 5 5 170 850
139	582562 11452 238 189852 1.11 35.11 341 -1.0965654229306 1.5 56.448688141522 153.8220727979
138	594014 11550 238 189852 1.11 35.11 341 -0.96056716558053 1.4709069261848 53.418281889713 124.15230814828
137	605564 7555 238 189852 1.11 35.11 341 36.55 36.55 12463.55 455542.7525
136	613119 10927 238 189852 1.11 35.11 341 70.345957565308 1503.043406037 266680.42206062 266554102.97483
135	624046 10928 238 189852 1.11 35.11 341 41.075661397988 46.98026377861 14370.5061745 606040.23864696
133	634974 11598 238 189852 1.11 35.11 341 -0.49035860428342 0.7186687067469 26.288217154642 31.680839066798
132	646572 10931 238 189852 1.11 35.11 341 22.51836133244 25.503573413607 7869.4584541063 181722.5568004
134	657503 6191 238 189852 1.11 35.11 341 6 6 2046 12276
146	663694 13885 1249 189745 1.305605296306 35.105608823876 339 0.099987252405 0.10000038201 33.900003854736 3.3900007722665
145	677579 13921 866 189924 1.269559864204 35.169563620375 340 0.099987305647 0.100000381578 34.000004083337 3.4000008179858
144	691500 9519 1249 189745 1.305605296306 35.105608823876 339 6 6 2034 12204
143	701019 9539 866 189924 1.269559864204 35.169563620375 340 6 6 2040 12240
142	710558 517 5062 189106 2 35 34 0 0 0 0
141	711075 953 5062 189106 2 35 34 0.022753413532 0.026261987483 0.889015204068 0.023257400472319
140	712028 517 5062 189106 2 35 34 6 6 204 1224
161	712545 11563 239 189853 1.11 35.11 341 -1.0030722512888 1.4922645679574 53.903482998612 131.51441446017
160	724108 11580 239 189853 1.11 35.11 341 -0.88127807889009 1.4425023671976 48.990477574047 105.81845069017
159	735688 7555 239 189853 1.11 35.11 341 36.55 36.55 12463.55 455542.7525
158	743243 10928 239 189853 1.11 35.11 341 43.512624549866 1473.7453562806 257459.04805829 252323811.71845
157	754171 10922 239 189853 1.11 35.11 341 41.144940124797 46.520647434025 14345.701219323 603832.48814167
155	765093 11615 239 189853 1.11 35.11 341 -0.44951077568783 0.70297686015788 24.270772357629 26.908254519936
154	776708 10920 239 189853 1.11 35.11 341 22.555328727097 25.288857429455 7856.8779032207 181111.71694301
156	787628 6191 239 189853 1.11 35.11 341 7 7 2387 16709
168	793819 13890 980 189475 1.292109132723 35.092099890041 339 0.099987228336 0.100000381864 33.899991084484 3.3899982183774
167	807709 13939 872 189930 1.269559953711 35.169563718176 340 0.099987305546 0.100000381673 34.000004091631 3.4000008196446
166	821648 9517 980 189475 1.292109132723 35.092099890041 339 7 7 2373 16611
165	831165 9540 872 189930 1.269559953711 35.169563718176 340 7 7 2380 16660
164	840705 517 5063 189107 2 35 34 0 0 0 0
163	841222 952 5063 189107 2 35 34 0.022753324025 0.026261985363 0.889015106531 0.023257395977535
162	842174 517 5063 189107 2 35 34 7 7 238 1666
88	842691 10601 236 190002 1.11 35.19 342 0 23.592130915601 7432.1296352722 166707.10959207
89	853292 11269 236 190002 1.11 35.19 342 -9.1427495945467 0.50401689178422 -234.10860783519 1456.6439174604
90	864561 5868 236 190002 1.11 35.19 342 4 4 1368 5472
91	870429 10627 236 190002 1.11 35.19 342 40.909730480606 51.089562224358 14530.550332678 618783.70747537
92	881056 10619 236 190002 1.11 35.19 342 124.01262168884 1571.5494113728 286786.14737529 299253045.68945
93	891675 7236 236 190002 1.11 35.19 342 36.55 36.55 12500.1 456878.655
94	898911 11201 236 190002 1.11 35.19 342 -1.1515793825943 2.4999999999999 94.450666904036 286.18958186958
95	910112 10929 236 190002 1.11 35.19 342 -1.3145191623382 4.3773078269696 116.1962301029 491.93984062127
96	921041 483 5060 189104 2 35 34 4 4 136 544
97	921524 920 5060 189104 2 35 34 0.022753592544 0.026262000224 0.889015417318 0.023257410416331
98	922444 483 5060 189104 2 35 34 0 0 0 0
99	922927 9206 854 189912 1.269559685191 35.169563404815 340 4 4 1360 5440
100	932133 9511 1312 189808 1.306018475319 35.106021873447 339 4 4 1356 5424
101	941644 13938 854 189912 1.269559685191 35.169563404815 340 0.099987305891 0.100000381346 34.00000404679 3.4000008106764
102	955582 13882 1312 189808 1.306018475319 35.106021873447 339 0.099909241083 0.100091327166 33.899938725294 3.3899883255149
