file 971376 1501697334                                          
version 2
run SinusoidalAccInjectionAttack-21-20170802-20:08:36-65058
attr CACCSpacing 5
attr attackAcc -30
attr attackPos 7
attr attackSpeed 150
attr attackStart 30
attr attacker 4
attr beaconInterval 0.1
attr configname SinusoidalAccInjectionAttack
attr controller 1
attr datetime 20170802-20:08:36
attr experiment SinusoidalAccInjectionAttack
attr fakeAcc "(4 == 4)"
attr fakePos "(4 == 2)"
attr fakeSpeed "(4 == 3)"
attr inifile omnetpp_21.ini
attr iterationvars "$attacker=4, $attackSpeed=150, $attackPos=7, $attackAcc=-30, $leaderSpeed=100, $controller=1, $CACCSpacing=5, $sController=\"CACC\", $attackStart=30, $0=5, $1=0, $nCars=8, $platoonSize=8, $nLanes=1, $beaconInterval=0.1, $priority=2, $packetSize=200, $ploegH=0.5, $leaderHeadway=1.2, $fakeSpeed=(4 == 3), $fakeAcc=(4 == 4), $fakePos=(4 == 2)"
attr iterationvarsf attacker=4,attackSpeed=150,attackPos=7,attackAcc=-30,leaderSpeed=100,controller=1,CACCSpacing=5,sController=CACC,attackStart=30,5,0,nCars=8,platoonSize=8,nLanes=1,beaconInterval=0.1,priority=2,packetSize=200,ploegH=0.5,leaderHeadway=1.2,fakeSpeed=(4_==_3),fakeAcc=(4_==_4),fakePos=(4_==_2)-
attr leaderHeadway 1.2
attr leaderSpeed 100
attr measurement "$attacker=4, $attackSpeed=150, $attackPos=7, $attackAcc=-30, $leaderSpeed=100, $controller=1, $CACCSpacing=5, $sController=\"CACC\", $attackStart=30, $0=5, $1=0, $nCars=8, $platoonSize=8, $nLanes=1, $beaconInterval=0.1, $priority=2, $packetSize=200, $ploegH=0.5, $leaderHeadway=1.2, $fakeSpeed=(4 == 3), $fakeAcc=(4 == 4), $fakePos=(4 == 2)"
attr nCars 8
attr nLanes 1
attr network scenario
attr packetSize 200
attr platoonSize 8
attr ploegH 0.5
attr priority 2
attr processid 65058
attr repetition 1
attr replication #1
attr resultdir results
attr runnumber 21
attr sController "\"CACC\""
attr seedset 1
param **.coreDebug false
param **.debug false
param **.headway 0.1s
param **.numberOfCars 8
param **.numberOfCarsPerPlatoon 8
param **.numberOfLanes 1
param **.numericController 1
param **.traffic.nCars 8
param **.traffic.nLanes 1
param **.traffic.platoonInsertDistance 5m
param **.traffic.platoonInsertHeadway 0s
param **.traffic.platoonInsertSpeed 100kmph
param **.traffic.platoonInsertTime "1 s"
param **.traffic.platoonLeaderHeadway 1.2s
param **.traffic.platoonSize 8
param **.traffic.platooningVType "\"vtypeauto\""
param **.traffic_type "\"PlatoonsTrafficManager\""
param *.**.nic.mac1609_4.bitrate 6Mbps
param *.**.nic.mac1609_4.txPower 100mW
param *.**.nic.mac1609_4.useServiceChannel false
param *.**.nic.phy80211p.analogueModels "xmldoc(\"config.xml\")"
param *.**.nic.phy80211p.decider "xmldoc(\"config.xml\")"
param *.**.nic.phy80211p.maxTXPower 100mW
param *.**.nic.phy80211p.sensitivity -94dBm
param *.**.nic.phy80211p.thermalNoise -95dBm
param *.**.nic.phy80211p.usePropagationDelay true
param *.**.nic.phy80211p.useThermalNoise true
param *.annotations.draw false
param *.connectionManager.alpha 2.0
param *.connectionManager.carrierFrequency "5.890e9 Hz"
param *.connectionManager.pMax 100mW
param *.connectionManager.sat -94dBm
param *.connectionManager.sendDirect true
param *.manager.autoShutdown true
param *.manager.commandLine "\"sumo --remote-port $port --seed $seed --configuration-file $configFile\""
param *.manager.configFile "\"./sumocfg/freeway.sumo.cfg\""
param *.manager.host "\"localhost\""
param *.manager.margin 25
param *.manager.moduleDisplayString "\"\""
param *.manager.moduleName "\"node\""
param *.manager.moduleType "\"Car\""
param *.manager.updateInterval 0.01s
param *.node[*].appl.attackStart 30s
param *.node[*].appl.attackerType 4
param *.node[*].appl.simulationDuration "60 s"
param *.node[*].appl_type "\"SimplePlatooningApp\""
param *.node[*].helper.nCars 8
param *.node[*].helper.nLanes 1
param *.node[*].helper.platoonSize 8
param *.node[*].helper_type "\"PositionHelper\""
param *.node[*].mobility.x 0
param *.node[*].mobility.y 0
param *.node[*].mobility.z 1.895
param *.node[*].prot.attackStart 30s
param *.node[*].prot.attackerType 4
param *.node[*].prot.attackingNode 3
param *.node[*].prot.beaconingInterval 0.1s
param *.node[*].prot.fakeAcc "(4 == 4)"
param *.node[*].prot.fakePos "(4 == 2)"
param *.node[*].prot.fakeSpeed "(4 == 3)"
param *.node[*].prot.maliciousAcc "-30 mpss"
param *.node[*].prot.maliciousSpeed 150kmph
param *.node[*].prot.packetSize 200
param *.node[*].prot.priority 2
param *.node[*].prot.shiftX "7 m"
param *.node[*].prot.useControllerAcceleration true
param *.node[*].protocol_type "\"SimplePlatooningBeaconing\""
param *.node[*].scenario.accHeadway 0.1s
param *.node[*].scenario.caccC1 0.5
param *.node[*].scenario.caccOmegaN "0.2 Hz"
param *.node[*].scenario.caccSpacing 5m
param *.node[*].scenario.caccXi 1
param *.node[*].scenario.controller "\"CACC\""
param *.node[*].scenario.engineTau "0.5 s"
param *.node[*].scenario.leaderHeadway 1.2s
param *.node[*].scenario.leaderOscillationFrequency "0.2 Hz"
param *.node[*].scenario.leaderSpeed 100kmph
param *.node[*].scenario.oscillationAmplitude "10 kmph"
param *.node[*].scenario.ploegH 0.5s
param *.node[*].scenario.ploegKd 0.7
param *.node[*].scenario.ploegKp 0.2
param *.node[*].scenario.startOscillating "5 s"
param *.node[*].scenario.useRealisticEngine false
param *.node[*].scenario_type "\"SinusoidalScenario\""
param *.node[*].unicast.packetLossRate 0
param *.obstacles.debug false
param *.playgroundSizeX 65000m
param *.playgroundSizeY 25000m
param *.playgroundSizeZ 50m
param *.world.use2D false
param *.world.useTorus false

vector 0  scenario.node[0].appl  distance  ETV
vector 1  scenario.node[0].appl  relativeSpeed  ETV
vector 2  scenario.node[0].appl  nodeId  ETV
vector 6  scenario.node[0].appl  acceleration  ETV
vector 7  scenario.node[0].appl  controllerAcceleration  ETV
vector 3  scenario.node[0].appl  speed  ETV
vector 4  scenario.node[0].appl  posx  ETV
vector 5  scenario.node[0].appl  posy  ETV
vector 22  scenario.node[1].appl  distance  ETV
vector 23  scenario.node[1].appl  relativeSpeed  ETV
vector 24  scenario.node[1].appl  nodeId  ETV
vector 28  scenario.node[1].appl  acceleration  ETV
vector 29  scenario.node[1].appl  controllerAcceleration  ETV
vector 25  scenario.node[1].appl  speed  ETV
vector 26  scenario.node[1].appl  posx  ETV
vector 27  scenario.node[1].appl  posy  ETV
vector 44  scenario.node[2].appl  distance  ETV
vector 45  scenario.node[2].appl  relativeSpeed  ETV
vector 46  scenario.node[2].appl  nodeId  ETV
vector 50  scenario.node[2].appl  acceleration  ETV
vector 51  scenario.node[2].appl  controllerAcceleration  ETV
vector 47  scenario.node[2].appl  speed  ETV
vector 48  scenario.node[2].appl  posx  ETV
vector 49  scenario.node[2].appl  posy  ETV
vector 66  scenario.node[3].appl  distance  ETV
vector 67  scenario.node[3].appl  relativeSpeed  ETV
vector 68  scenario.node[3].appl  nodeId  ETV
vector 72  scenario.node[3].appl  acceleration  ETV
vector 73  scenario.node[3].appl  controllerAcceleration  ETV
vector 69  scenario.node[3].appl  speed  ETV
vector 70  scenario.node[3].appl  posx  ETV
vector 71  scenario.node[3].appl  posy  ETV
vector 88  scenario.node[4].appl  distance  ETV
vector 89  scenario.node[4].appl  relativeSpeed  ETV
vector 90  scenario.node[4].appl  nodeId  ETV
vector 94  scenario.node[4].appl  acceleration  ETV
vector 95  scenario.node[4].appl  controllerAcceleration  ETV
vector 91  scenario.node[4].appl  speed  ETV
vector 92  scenario.node[4].appl  posx  ETV
vector 93  scenario.node[4].appl  posy  ETV
vector 110  scenario.node[5].appl  distance  ETV
vector 111  scenario.node[5].appl  relativeSpeed  ETV
vector 112  scenario.node[5].appl  nodeId  ETV
vector 116  scenario.node[5].appl  acceleration  ETV
vector 117  scenario.node[5].appl  controllerAcceleration  ETV
vector 113  scenario.node[5].appl  speed  ETV
vector 114  scenario.node[5].appl  posx  ETV
vector 115  scenario.node[5].appl  posy  ETV
vector 132  scenario.node[6].appl  distance  ETV
vector 133  scenario.node[6].appl  relativeSpeed  ETV
vector 134  scenario.node[6].appl  nodeId  ETV
vector 138  scenario.node[6].appl  acceleration  ETV
vector 139  scenario.node[6].appl  controllerAcceleration  ETV
vector 135  scenario.node[6].appl  speed  ETV
vector 136  scenario.node[6].appl  posx  ETV
vector 137  scenario.node[6].appl  posy  ETV
vector 154  scenario.node[7].appl  distance  ETV
vector 155  scenario.node[7].appl  relativeSpeed  ETV
vector 156  scenario.node[7].appl  nodeId  ETV
vector 160  scenario.node[7].appl  acceleration  ETV
vector 161  scenario.node[7].appl  controllerAcceleration  ETV
vector 157  scenario.node[7].appl  speed  ETV
vector 158  scenario.node[7].appl  posx  ETV
vector 159  scenario.node[7].appl  posy  ETV
vector 58  scenario.node[2].prot  frontDelay  ETV
vector 56  scenario.node[2].prot  frontDelayId  ETV
vector 102  scenario.node[4].prot  frontDelay  ETV
vector 100  scenario.node[4].prot  frontDelayId  ETV
vector 146  scenario.node[6].prot  frontDelay  ETV
vector 144  scenario.node[6].prot  frontDelayId  ETV
vector 168  scenario.node[7].prot  frontDelay  ETV
vector 166  scenario.node[7].prot  frontDelayId  ETV
vector 124  scenario.node[5].prot  frontDelay  ETV
vector 122  scenario.node[5].prot  frontDelayId  ETV
vector 35  scenario.node[1].prot  leaderDelay  ETV
vector 33  scenario.node[1].prot  leaderDelayId  ETV
vector 36  scenario.node[1].prot  frontDelay  ETV
vector 34  scenario.node[1].prot  frontDelayId  ETV
vector 57  scenario.node[2].prot  leaderDelay  ETV
vector 55  scenario.node[2].prot  leaderDelayId  ETV
vector 79  scenario.node[3].prot  leaderDelay  ETV
vector 77  scenario.node[3].prot  leaderDelayId  ETV
vector 101  scenario.node[4].prot  leaderDelay  ETV
vector 99  scenario.node[4].prot  leaderDelayId  ETV
vector 123  scenario.node[5].prot  leaderDelay  ETV
vector 121  scenario.node[5].prot  leaderDelayId  ETV
vector 145  scenario.node[6].prot  leaderDelay  ETV
vector 143  scenario.node[6].prot  leaderDelayId  ETV
vector 167  scenario.node[7].prot  leaderDelay  ETV
vector 165  scenario.node[7].prot  leaderDelayId  ETV
vector 80  scenario.node[3].prot  frontDelay  ETV
vector 78  scenario.node[3].prot  frontDelayId  ETV
vector 8  scenario.node[0].prot  nodeId  ETV
vector 9  scenario.node[0].prot  busyTime  ETV
vector 10  scenario.node[0].prot  collisions  ETV
vector 30  scenario.node[1].prot  nodeId  ETV
vector 31  scenario.node[1].prot  busyTime  ETV
vector 32  scenario.node[1].prot  collisions  ETV
vector 52  scenario.node[2].prot  nodeId  ETV
vector 53  scenario.node[2].prot  busyTime  ETV
vector 54  scenario.node[2].prot  collisions  ETV
vector 74  scenario.node[3].prot  nodeId  ETV
vector 75  scenario.node[3].prot  busyTime  ETV
vector 76  scenario.node[3].prot  collisions  ETV
vector 96  scenario.node[4].prot  nodeId  ETV
vector 97  scenario.node[4].prot  busyTime  ETV
vector 98  scenario.node[4].prot  collisions  ETV
vector 118  scenario.node[5].prot  nodeId  ETV
vector 119  scenario.node[5].prot  busyTime  ETV
vector 120  scenario.node[5].prot  collisions  ETV
vector 140  scenario.node[6].prot  nodeId  ETV
vector 141  scenario.node[6].prot  busyTime  ETV
vector 142  scenario.node[6].prot  collisions  ETV
vector 162  scenario.node[7].prot  nodeId  ETV
vector 163  scenario.node[7].prot  busyTime  ETV
vector 164  scenario.node[7].prot  collisions  ETV
7	11244 8156 232 190403 1.11 35.21 342 -1.5 1.5 -10.177976668406 543.85883090751
6	19400 10749 232 190403 1.11 35.21 342 -1.4722746794938 1.451340770512 -12.683107012965 366.49424999445
5	30149 6894 232 190403 1.11 35.21 342 36.55 36.55 12500.1 456878.655
4	37043 10268 232 190403 1.11 35.21 342 98.383170318337 1049.5386930322 196725.68381047 139091421.81591
3	47311 10278 232 190403 1.11 35.21 342 26.487975689908 29.742492528104 9538.8869546006 266308.04665502
1	57589 5526 232 190403 1.11 35.21 342 0 0 0 0
0	63115 5868 232 190403 1.11 35.21 342 -1 -1 -342 342
2	68983 5526 232 190403 1.11 35.21 342 0 0 0 0
10	74509 483 5168 189212 2 35 34 0 0 0 0
9	74992 654 5168 189212 2 35 34 0.023297 0.02625 0.889547 0.023281812709
8	75646 449 5168 189212 2 35 34 0 0 0 0
29	76095 10998 233 190404 1.11 35.21 342 -1.5555551923497 1.5570065800035 -12.167553288127 565.95909831111
28	87093 11072 233 190404 1.11 35.21 342 -1.4954736408896 1.4761401705229 -13.067511504281 376.32779216163
27	98165 7236 233 190404 1.11 35.21 342 36.55 36.55 12500.1 456878.655
26	105401 10627 233 190404 1.11 35.21 342 89.383170318604 1040.661697939 193640.99352663 135572673.43429
25	116028 10616 233 190404 1.11 35.21 342 26.471219915032 29.751301063749 9540.1053679554 266380.59673169
23	126644 11438 233 190404 1.11 35.21 342 -0.12424054519698 0.12345092645667 -1.0915822846719 2.7760090418684
22	138082 10625 233 190404 1.11 35.21 342 4.8752514356875 5.1830414327686 1716.7146521041 8619.6289364395
24	148707 5868 233 190404 1.11 35.21 342 1 1 342 342
36	154575 13590 1238 190296 1.297801900626 35.19780691711 340 0.099998475972 0.100011482557 34.000003496818 3.4000007053283
35	168165 13590 1238 190296 1.297801900626 35.19780691711 340 0.099998475972 0.100011482557 34.000003496818 3.4000007053283
34	181755 9199 1238 190296 1.297801900626 35.19780691711 340 1 1 340 340
33	190954 9199 1238 190296 1.297801900626 35.19780691711 340 1 1 340 340
32	200153 483 5169 189213 2 35 34 0 0 0 0
31	200636 688 5169 189213 2 35 34 0.023297 0.02625 0.889547 0.023281812709
30	201324 483 5169 189213 2 35 34 1 1 34 34
51	201807 11008 234 190405 1.11 35.21 342 -1.5092135970071 1.5122039357142 -12.489702689577 536.07411011503
50	212815 11074 234 190405 1.11 35.21 342 -1.4841297343438 1.4673660726388 -12.977784988641 370.86591737815
49	223889 7236 234 190405 1.11 35.21 342 36.55 36.55 12500.1 456878.655
48	231125 10616 234 190405 1.11 35.21 342 80.383170318604 1031.6693550376 190559.63155359 132111345.87889
47	241741 10616 234 190405 1.11 35.21 342 26.481347249203 29.739897711456 9540.185355203 266381.11542585
45	252357 11842 234 190405 1.11 35.21 342 -0.010773794236499 0.012241035970902 0.050687867495185 0.0147967016957
44	264199 10609 234 190405 1.11 35.21 342 4.9921308160752 5.0331336978487 1713.3635727859 8583.7064879339
46	274808 5868 234 190405 1.11 35.21 342 2 2 684 1368
58	280676 13623 832 190447 1.212435510355 35.212439007097 341 0.099998475962 0.100011482567 34.100001977076 3.4100004013822
57	294299 13597 1244 190302 1.297801930647 35.197806947106 340 0.099998475969 0.100011482561 34.000003496793 3.4000007053233
56	307896 9231 832 190447 1.212435510355 35.212439007097 341 2 2 682 1364
55	317127 9203 1244 190302 1.297801930647 35.197806947106 340 2 2 680 1360
54	326330 483 5170 189214 2 35 34 0 0 0 0
53	326813 688 5170 189214 2 35 34 0.023296 0.02625 0.889546 0.023281766116
52	327501 483 5170 189214 2 35 34 2 2 68 136
73	327984 10983 235 190406 1.11 35.21 342 -1.4954488811835 1.498650847703 -12.640883218397 519.94528466961
72	338967 11064 235 190406 1.11 35.21 342 -1.4697266297038 1.4522561963027 -12.856572231967 363.72903625981
71	350031 7236 235 190406 1.11 35.21 342 36.55 36.55 12500.1 456878.655
70	357267 10614 235 190406 1.11 35.21 342 71.383170318604 1022.6883556806 187478.33418959 128705796.18218
69	367881 10628 235 190406 1.11 35.21 342 26.496040802386 29.72489769669 9540.3800215439 266386.89374228
67	378509 11683 235 190406 1.11 35.21 342 -0.021936205129379 0.021653873671916 -0.06488849102443 0.047018213787669
66	390192 10589 235 190406 1.11 35.21 342 4.9809316245654 5.0520778879205 1713.3012573304 8583.1526127335
68	400781 5868 235 190406 1.11 35.21 342 3 3 1026 3078
80	406649 13586 1312 190365 1.307223960668 35.207215977064 340 0.099998475963 0.100011482567 33.99999049673 3.3999981051813
79	420235 13606 1250 190308 1.297801960667 35.197806977064 340 0.099998475962 0.100011482564 34.000003496731 3.4000007053109
78	433841 9190 1312 190365 1.307223960668 35.207215977064 340 3 3 1020 3060
77	443031 9206 1250 190308 1.297801960667 35.197806977064 340 3 3 1020 3060
76	452237 483 5171 189215 2 35 34 0 0 0 0
75	452720 688 5171 189215 2 35 34 0.023297 0.02625 0.889547 0.023281812709
74	453408 483 5171 189215 2 35 34 3 3 102 306
117	453891 11363 237 190408 1.11 35.21 342 -1.5284774898913 1.8346634048666 15.860643070874 502.50488900953
116	465254 11440 237 190408 1.11 35.21 342 -1.4661745254248 1.4673619726178 11.036524926265 332.59789203473
115	476694 7578 237 190408 1.11 35.21 342 36.55 36.55 12500.1 456878.655
114	484272 10963 237 190408 1.11 35.21 342 53.383172225952 1007.0383116381 181325.61306751 122080096.61943
113	495235 10961 237 190408 1.11 35.21 342 26.491600982744 29.717930080183 9564.7100956992 267751.98033988
111	506196 11879 237 190408 1.11 35.21 342 -0.15279465477294 1.7793408808741 23.982742351 34.958569888887
110	518075 10963 237 190408 1.11 35.21 342 4.7695065887945 7.3287514761668 1727.3918794949 8753.3958811081
112	529038 6210 237 190408 1.11 35.21 342 5 5 1710 8550
124	535248 13934 1178 190236 1.297388780543 35.197380821156 340 0.09999847793 0.100011482644 33.999990520947 3.3999981100247
123	549182 13940 1262 190320 1.297802020709 35.197807029424 340 0.099998475192 0.100011482566 34.000003489049 3.4000007037745
122	563122 9544 1178 190236 1.297388780543 35.197380821156 340 5 5 1700 8500
121	572666 9554 1262 190320 1.297802020709 35.197807029424 340 5 5 1700 8500
120	582220 517 5173 189217 2 35 34 0 0 0 0
119	582737 722 5173 189217 2 35 34 0.023297 0.02625 0.889547 0.023281812709
118	583459 517 5173 189217 2 35 34 5 5 170 850
139	583976 11390 238 190409 1.11 35.21 342 -1.4999727096697 1.7850320167175 3.5503138726669 495.05878364987
138	595366 11437 238 190409 1.11 35.21 342 -1.4605505450778 1.4432664551983 0.50684433738155 335.59382234051
137	606803 7578 238 190409 1.11 35.21 342 36.55 36.55 12500.1 456878.655
136	614381 10960 238 190409 1.11 35.21 342 44.383172225952 996.82672002037 178238.70466244 118828172.16397
135	625341 10959 238 190409 1.11 35.21 342 26.504105764059 29.710277846413 9552.2268872973 267036.08361646
133	636300 11920 238 190409 1.11 35.21 342 -0.11569282271549 1.0387764602952 12.372843152666 10.659402467892
132	648220 10944 238 190409 1.11 35.21 342 4.8486413853103 6.190682997301 1718.6587408995 8643.6608841501
134	659164 6210 238 190409 1.11 35.21 342 6 6 2052 12312
146	665374 13962 970 190579 1.248712630439 35.248716123267 341 0.099998476014 0.100011482569 34.100001973162 3.4100004005994
145	679336 13917 1268 190326 1.29780205073 35.197807063416 340 0.099998475536 0.100011482569 34.00000349302 3.4000007045687
144	693253 9568 970 190579 1.248712630439 35.248716123267 341 6 6 2046 12276
143	702821 9540 1268 190326 1.29780205073 35.197807063416 340 6 6 2040 12240
142	712361 517 5174 189218 2 35 34 0 0 0 0
141	712878 722 5174 189218 2 35 34 0.023297 0.02625 0.889547 0.023281812709
140	713600 517 5174 189218 2 35 34 6 6 204 1224
161	714117 11343 239 190410 1.11 35.21 342 -1.5093935057707 1.7164533128712 -3.2353039255375 514.51174800268
160	725460 11433 239 190410 1.11 35.21 342 -1.4619692869356 1.4451435687519 -5.502498249562 345.2905623799
159	736893 7578 239 190410 1.11 35.21 342 36.55 36.55 12500.1 456878.655
158	744471 10968 239 190410 1.11 35.21 342 35.383171749115 987.23636604234 175155.97498003 115639778.18857
157	755439 10960 239 190410 1.11 35.21 342 26.503538247536 29.711980657047 9546.1143859376 266696.2047109
155	766399 11943 239 190410 1.11 35.21 342 -0.074586864472785 0.58730522956148 6.1074329162794 3.0246751433516
154	778342 10952 239 190410 1.11 35.21 342 4.9161389141178 5.5785180615078 1714.6074323829 8597.6083901526
156	789294 6210 239 190410 1.11 35.21 342 7 7 2394 16758
168	795504 13968 1040 190649 1.26389366046 35.263884155357 341 0.099998475722 0.100011482562 34.099988975231 3.4099978008838
167	809472 13922 1274 190332 1.29780208075 35.197807095367 340 0.09999847573 0.100011482568 34.000003494951 3.4000007049549
166	823394 9565 1040 190649 1.26389366046 35.263884155357 341 7 7 2387 16709
165	832959 9539 1274 190332 1.29780208075 35.197807095367 340 7 7 2380 16660
164	842498 517 5175 189219 2 35 34 0 0 0 0
163	843015 722 5175 189219 2 35 34 0.023297 0.02625 0.889547 0.023281812709
162	843737 517 5175 189219 2 35 34 7 7 238 1666
88	844254 10597 236 190689 1.11 35.28 343 0 5.6067456830651 1689.8158440613 8453.9119036234
89	854851 11634 236 190689 1.11 35.28 343 -4.2147081608135 0.36132178200116 -52.688999629709 178.03866096725
90	866485 5886 236 190689 1.11 35.28 343 4 4 1372 5488
91	872371 10644 236 190689 1.11 35.28 343 26.473120426845 30.701070432795 9619.6839491679 270138.84836465
92	883015 10649 236 190689 1.11 35.28 343 62.383170318603 1020.5506155144 185442.04101818 126446949.98426
93	893664 7258 236 190689 1.11 35.28 343 36.55 36.55 12536.65 458214.5575
94	900922 11092 236 190689 1.11 35.28 343 -1.4671620257765 1.6027150258026 29.938954764767 347.33534245289
95	912014 11035 236 190689 1.11 35.28 343 -1.5015734354391 1.8232049739285 34.911587215056 495.24509864973
96	923049 483 5172 189216 2 35 34 4 4 136 544
97	923532 688 5172 189216 2 35 34 0.023297 0.02625 0.889547 0.023281812709
98	924220 483 5172 189216 2 35 34 0 0 0 0
99	924703 9202 1256 190314 1.297801990688 35.197806991635 340 4 4 1360 5440
100	933905 9576 902 190511 1.235039570397 35.235043051072 341 4 4 1364 5456
101	943481 13929 1256 190314 1.297801990688 35.197806991635 340 0.099998474599 0.100011482566 34.000003481281 3.4000007022209
102	957410 13966 902 190511 1.235039570397 35.235043051072 341 0.09999847458 0.100011482572 34.100001961009 3.4100003981688
