file 1679014 1512143336                                         
version 2
run SinusoidalAccInjectionAttack-86-20171201-16:48:26-19720
attr CACCSpacing 20
attr attackAcc -10
attr attackPos 7
attr attackSpeed 150
attr attackStart 30
attr attacker 4
attr beaconInterval 0.1
attr configname SinusoidalAccInjectionAttack
attr controller 1
attr datetime 20171201-16:48:26
attr experiment SinusoidalAccInjectionAttack
attr fakeAcc "(4 == 4)"
attr fakePos "(4 == 2)"
attr fakeSpeed "(4 == 3)"
attr inifile omnetpp_86.ini
attr iterationvars "$attacker=4, $attackSpeed=150, $attackPos=7, $attackAcc=-10, $leaderSpeed=100, $controller=1, $CACCSpacing=20, $sController=\"CACC\", $attackStart=30, $0=20, $1=0, $nCars=8, $platoonSize=8, $nLanes=1, $beaconInterval=0.1, $priority=2, $packetSize=200, $ploegH=0.5, $leaderHeadway=1.2, $fakeSpeed=(4 == 3), $fakeAcc=(4 == 4), $fakePos=(4 == 2)"
attr iterationvarsf attacker=4,attackSpeed=150,attackPos=7,attackAcc=-10,leaderSpeed=100,controller=1,CACCSpacing=20,sController=CACC,attackStart=30,20,0,nCars=8,platoonSize=8,nLanes=1,beaconInterval=0.1,priority=2,packetSize=200,ploegH=0.5,leaderHeadway=1.2,fakeSpeed=(4_==_3),fakeAcc=(4_==_4),fakePos=(4_==_2)-
attr leaderHeadway 1.2
attr leaderSpeed 100
attr measurement "$attacker=4, $attackSpeed=150, $attackPos=7, $attackAcc=-10, $leaderSpeed=100, $controller=1, $CACCSpacing=20, $sController=\"CACC\", $attackStart=30, $0=20, $1=0, $nCars=8, $platoonSize=8, $nLanes=1, $beaconInterval=0.1, $priority=2, $packetSize=200, $ploegH=0.5, $leaderHeadway=1.2, $fakeSpeed=(4 == 3), $fakeAcc=(4 == 4), $fakePos=(4 == 2)"
attr nCars 8
attr nLanes 1
attr network scenario
attr packetSize 200
attr platoonSize 8
attr ploegH 0.5
attr priority 2
attr processid 19720
attr repetition 1
attr replication #1
attr resultdir results
attr runnumber 86
attr sController "\"CACC\""
attr seedset 1
param **.coreDebug false
param **.debug false
param **.headway 0.1s
param **.numberOfCars 8
param **.numberOfCarsPerPlatoon 8
param **.numberOfLanes 1
param **.numericController 1
param **.traffic.nCars 8
param **.traffic.nLanes 1
param **.traffic.platoonInsertDistance 20m
param **.traffic.platoonInsertHeadway 0s
param **.traffic.platoonInsertSpeed 100kmph
param **.traffic.platoonInsertTime "1 s"
param **.traffic.platoonLeaderHeadway 1.2s
param **.traffic.platoonSize 8
param **.traffic.platooningVType "\"vtypeauto\""
param **.traffic_type "\"PlatoonsTrafficManager\""
param *.**.nic.mac1609_4.bitrate 6Mbps
param *.**.nic.mac1609_4.txPower 100mW
param *.**.nic.mac1609_4.useServiceChannel false
param *.**.nic.phy80211p.analogueModels "xmldoc(\"config.xml\")"
param *.**.nic.phy80211p.decider "xmldoc(\"config.xml\")"
param *.**.nic.phy80211p.maxTXPower 100mW
param *.**.nic.phy80211p.sensitivity -94dBm
param *.**.nic.phy80211p.thermalNoise -95dBm
param *.**.nic.phy80211p.usePropagationDelay true
param *.**.nic.phy80211p.useThermalNoise true
param *.annotations.draw false
param *.connectionManager.alpha 2.0
param *.connectionManager.carrierFrequency "5.890e9 Hz"
param *.connectionManager.pMax 100mW
param *.connectionManager.sat -94dBm
param *.connectionManager.sendDirect true
param *.manager.autoShutdown true
param *.manager.commandLine "\"sumo --remote-port $port --seed $seed --configuration-file $configFile\""
param *.manager.configFile "\"./sumocfg/freeway.sumo.cfg\""
param *.manager.host "\"localhost\""
param *.manager.margin 25
param *.manager.moduleDisplayString "\"\""
param *.manager.moduleName "\"node\""
param *.manager.moduleType "\"Car\""
param *.manager.updateInterval 0.01s
param *.node[*].appl.attackStart 30s
param *.node[*].appl.attackerType 4
param *.node[*].appl.simulationDuration "60 s"
param *.node[*].appl_type "\"SimplePlatooningApp\""
param *.node[*].helper.nCars 8
param *.node[*].helper.nLanes 1
param *.node[*].helper.platoonSize 8
param *.node[*].helper_type "\"PositionHelper\""
param *.node[*].mobility.x 0
param *.node[*].mobility.y 0
param *.node[*].mobility.z 1.895
param *.node[*].prot.attackStart 30s
param *.node[*].prot.attackerType 4
param *.node[*].prot.attackingNode 3
param *.node[*].prot.beaconingInterval 0.1s
param *.node[*].prot.fakeAcc "(4 == 4)"
param *.node[*].prot.fakePos "(4 == 2)"
param *.node[*].prot.fakeSpeed "(4 == 3)"
param *.node[*].prot.maliciousAcc "-10 mpss"
param *.node[*].prot.maliciousSpeed 150kmph
param *.node[*].prot.packetSize 200
param *.node[*].prot.priority 2
param *.node[*].prot.shiftX "7 m"
param *.node[*].prot.useControllerAcceleration true
param *.node[*].protocol_type "\"SimplePlatooningBeaconing\""
param *.node[*].scenario.accHeadway 0.1s
param *.node[*].scenario.caccC1 0.5
param *.node[*].scenario.caccOmegaN "0.2 Hz"
param *.node[*].scenario.caccSpacing 20m
param *.node[*].scenario.caccXi 1
param *.node[*].scenario.controller "\"CACC\""
param *.node[*].scenario.engineTau "0.5 s"
param *.node[*].scenario.leaderHeadway 1.2s
param *.node[*].scenario.leaderSpeed 100kmph
param *.node[*].scenario.ploegH 0.5s
param *.node[*].scenario.ploegKd 0.7
param *.node[*].scenario.ploegKp 0.2
param *.node[*].scenario.useRealisticEngine false
param *.node[*].scenario_type "\"SinusoidalScenario\""
param *.node[*].unicast.packetLossRate 0
param *.obstacles.debug false
param *.playgroundSizeX 65000m
param *.playgroundSizeY 25000m
param *.playgroundSizeZ 50m
param *.world.use2D false
param *.world.useTorus false

vector 0  scenario.node[0].appl  distance  ETV
vector 1  scenario.node[0].appl  relativeSpeed  ETV
vector 2  scenario.node[0].appl  nodeId  ETV
vector 6  scenario.node[0].appl  acceleration  ETV
vector 7  scenario.node[0].appl  controllerAcceleration  ETV
vector 3  scenario.node[0].appl  speed  ETV
vector 4  scenario.node[0].appl  posx  ETV
vector 5  scenario.node[0].appl  posy  ETV
vector 22  scenario.node[1].appl  distance  ETV
vector 23  scenario.node[1].appl  relativeSpeed  ETV
vector 24  scenario.node[1].appl  nodeId  ETV
vector 28  scenario.node[1].appl  acceleration  ETV
vector 29  scenario.node[1].appl  controllerAcceleration  ETV
vector 25  scenario.node[1].appl  speed  ETV
vector 26  scenario.node[1].appl  posx  ETV
vector 27  scenario.node[1].appl  posy  ETV
vector 44  scenario.node[2].appl  distance  ETV
vector 45  scenario.node[2].appl  relativeSpeed  ETV
vector 46  scenario.node[2].appl  nodeId  ETV
vector 50  scenario.node[2].appl  acceleration  ETV
vector 51  scenario.node[2].appl  controllerAcceleration  ETV
vector 47  scenario.node[2].appl  speed  ETV
vector 48  scenario.node[2].appl  posx  ETV
vector 49  scenario.node[2].appl  posy  ETV
vector 66  scenario.node[3].appl  distance  ETV
vector 67  scenario.node[3].appl  relativeSpeed  ETV
vector 68  scenario.node[3].appl  nodeId  ETV
vector 72  scenario.node[3].appl  acceleration  ETV
vector 73  scenario.node[3].appl  controllerAcceleration  ETV
vector 69  scenario.node[3].appl  speed  ETV
vector 70  scenario.node[3].appl  posx  ETV
vector 71  scenario.node[3].appl  posy  ETV
vector 88  scenario.node[4].appl  distance  ETV
vector 89  scenario.node[4].appl  relativeSpeed  ETV
vector 90  scenario.node[4].appl  nodeId  ETV
vector 94  scenario.node[4].appl  acceleration  ETV
vector 95  scenario.node[4].appl  controllerAcceleration  ETV
vector 91  scenario.node[4].appl  speed  ETV
vector 92  scenario.node[4].appl  posx  ETV
vector 93  scenario.node[4].appl  posy  ETV
vector 110  scenario.node[5].appl  distance  ETV
vector 111  scenario.node[5].appl  relativeSpeed  ETV
vector 112  scenario.node[5].appl  nodeId  ETV
vector 116  scenario.node[5].appl  acceleration  ETV
vector 117  scenario.node[5].appl  controllerAcceleration  ETV
vector 113  scenario.node[5].appl  speed  ETV
vector 114  scenario.node[5].appl  posx  ETV
vector 115  scenario.node[5].appl  posy  ETV
vector 132  scenario.node[6].appl  distance  ETV
vector 133  scenario.node[6].appl  relativeSpeed  ETV
vector 134  scenario.node[6].appl  nodeId  ETV
vector 138  scenario.node[6].appl  acceleration  ETV
vector 139  scenario.node[6].appl  controllerAcceleration  ETV
vector 135  scenario.node[6].appl  speed  ETV
vector 136  scenario.node[6].appl  posx  ETV
vector 137  scenario.node[6].appl  posy  ETV
vector 154  scenario.node[7].appl  distance  ETV
vector 155  scenario.node[7].appl  relativeSpeed  ETV
vector 156  scenario.node[7].appl  nodeId  ETV
vector 160  scenario.node[7].appl  acceleration  ETV
vector 161  scenario.node[7].appl  controllerAcceleration  ETV
vector 157  scenario.node[7].appl  speed  ETV
vector 158  scenario.node[7].appl  posx  ETV
vector 159  scenario.node[7].appl  posy  ETV
vector 58  scenario.node[2].prot  frontDelay  ETV
vector 56  scenario.node[2].prot  frontDelayId  ETV
vector 102  scenario.node[4].prot  frontDelay  ETV
vector 100  scenario.node[4].prot  frontDelayId  ETV
vector 146  scenario.node[6].prot  frontDelay  ETV
vector 144  scenario.node[6].prot  frontDelayId  ETV
vector 168  scenario.node[7].prot  frontDelay  ETV
vector 166  scenario.node[7].prot  frontDelayId  ETV
vector 124  scenario.node[5].prot  frontDelay  ETV
vector 122  scenario.node[5].prot  frontDelayId  ETV
vector 35  scenario.node[1].prot  leaderDelay  ETV
vector 33  scenario.node[1].prot  leaderDelayId  ETV
vector 36  scenario.node[1].prot  frontDelay  ETV
vector 34  scenario.node[1].prot  frontDelayId  ETV
vector 57  scenario.node[2].prot  leaderDelay  ETV
vector 55  scenario.node[2].prot  leaderDelayId  ETV
vector 79  scenario.node[3].prot  leaderDelay  ETV
vector 77  scenario.node[3].prot  leaderDelayId  ETV
vector 101  scenario.node[4].prot  leaderDelay  ETV
vector 99  scenario.node[4].prot  leaderDelayId  ETV
vector 123  scenario.node[5].prot  leaderDelay  ETV
vector 121  scenario.node[5].prot  leaderDelayId  ETV
vector 145  scenario.node[6].prot  leaderDelay  ETV
vector 143  scenario.node[6].prot  leaderDelayId  ETV
vector 167  scenario.node[7].prot  leaderDelay  ETV
vector 165  scenario.node[7].prot  leaderDelayId  ETV
vector 80  scenario.node[3].prot  frontDelay  ETV
vector 78  scenario.node[3].prot  frontDelayId  ETV
vector 8  scenario.node[0].prot  nodeId  ETV
vector 9  scenario.node[0].prot  busyTime  ETV
vector 10  scenario.node[0].prot  collisions  ETV
vector 30  scenario.node[1].prot  nodeId  ETV
vector 31  scenario.node[1].prot  busyTime  ETV
vector 32  scenario.node[1].prot  collisions  ETV
vector 52  scenario.node[2].prot  nodeId  ETV
vector 53  scenario.node[2].prot  busyTime  ETV
vector 54  scenario.node[2].prot  collisions  ETV
vector 74  scenario.node[3].prot  nodeId  ETV
vector 75  scenario.node[3].prot  busyTime  ETV
vector 76  scenario.node[3].prot  collisions  ETV
vector 96  scenario.node[4].prot  nodeId  ETV
vector 97  scenario.node[4].prot  busyTime  ETV
vector 98  scenario.node[4].prot  collisions  ETV
vector 118  scenario.node[5].prot  nodeId  ETV
vector 119  scenario.node[5].prot  busyTime  ETV
vector 120  scenario.node[5].prot  collisions  ETV
vector 140  scenario.node[6].prot  nodeId  ETV
vector 141  scenario.node[6].prot  busyTime  ETV
vector 142  scenario.node[6].prot  collisions  ETV
vector 162  scenario.node[7].prot  nodeId  ETV
vector 163  scenario.node[7].prot  busyTime  ETV
vector 164  scenario.node[7].prot  collisions  ETV
7	11088 13860 232 328174 1.11 59.91 589 -1.5 1.5 -14.445974034379 993.24092368185
6	24948 18594 232 328174 1.11 59.91 589 -1.4722746794938 1.4513434175793 -12.50726914995 675.29835222675
5	43542 12081 232 328174 1.11 59.91 589 36.55 36.55 21527.95 786846.5725
4	55623 17895 232 328174 1.11 59.91 589 203.38317031834 1841.0326358608 602900.22400923 748918474.19071
3	73518 17905 232 328174 1.11 59.91 589 26.487965859734 29.742492528104 16403.83880962 457295.15275867
1	91423 9725 232 328174 1.11 59.91 589 0 0 0 0
0	101148 10314 232 328174 1.11 59.91 589 -1 -1 -589 589
2	111462 9725 232 328174 1.11 59.91 589 0 0 0 0
10	121187 858 5168 328662 2 60 59 0 0 0 0
9	122045 1154 5168 328662 2 60 59 0.023297 0.02625 1.545797 0.040508375209
8	123199 799 5168 328662 2 60 59 0 0 0 0
29	123998 16903 233 328175 1.11 59.91 589 -1.5466261422272 1.5427619280957 -19.18579679984 1005.145026017
28	140901 19174 233 328175 1.11 59.91 589 -1.4899163920546 1.4506836311249 -11.883580556606 678.00873708988
27	160075 12670 233 328175 1.11 59.91 589 36.55 36.55 21527.95 786846.5725
26	172745 18494 233 328175 1.11 59.91 589 179.3831703186 1816.8537506102 588631.4164509 720005520.13139
25	191239 18497 233 328175 1.11 59.91 589 26.476974864243 29.732323955484 16402.072773909 457196.97423278
23	209736 19810 233 328175 1.11 59.91 589 -0.12340964987202 0.14226264349096 1.8911084019753 5.1118242798058
22	229546 18497 233 328175 1.11 59.91 589 19.955408041301 20.423435535905 11912.772237614 240950.31441141
24	248043 10314 233 328175 1.11 59.91 589 1 1 589 589
36	258357 23696 1238 328624 1.297803401661 59.997807700795 588 0.099999280546 0.100012866966 58.80000358002 5.8800007198556
35	282053 23696 1238 328624 1.297803401661 59.997807700795 588 0.099999280546 0.100012866966 58.80000358002 5.8800007198556
34	305749 16121 1238 328624 1.297803401661 59.997807700795 588 1 1 588 588
33	321870 16121 1238 328624 1.297803401661 59.997807700795 588 1 1 588 588
32	337991 858 5169 328663 2 60 59 0 0 0 0
31	338849 1213 5169 328663 2 60 59 0.023297 0.02625 1.545797 0.040508375209
30	340062 858 5169 328663 2 60 59 1 1 59 59
51	340920 18893 234 328176 1.11 59.91 589 -1.5013789189422 1.5 -15.002631443257 969.47363157387
50	359813 19180 234 328176 1.11 59.91 589 -1.4795465362251 1.4451253722875 -11.791000026071 670.96704640291
49	378993 12670 234 328176 1.11 59.91 589 36.55 36.55 21527.95 786846.5725
48	391663 18502 234 328176 1.11 59.91 589 155.3831703186 1792.7659319573 574457.16948814 691999114.56912
47	410165 18493 234 328176 1.11 59.91 589 26.480520720116 29.721741405991 16401.197755674 457143.53966641
45	428658 20569 234 328176 1.11 59.91 589 -0.0071974947634033 0.01362616114978 0.99385404034657 0.019393726994809
44	449227 18473 234 328176 1.11 59.91 589 19.99999995392 20.104225149556 11818.2294624 237132.28633617
46	467700 10314 234 328176 1.11 59.91 589 2 2 1178 2356
58	478014 23703 832 328212 1.212436360941 59.912439918191 588 0.099999280539 0.10001289698 58.800002838136 5.8800005714815
57	501717 23703 1244 328630 1.297803481717 59.99780778114 588 0.099999280543 0.100012866968 58.800003580309 5.8800007199134
56	525420 16128 832 328212 1.212436360941 59.912439918191 588 2 2 1176 2352
55	541548 16119 1244 328630 1.297803481717 59.99780778114 588 2 2 1176 2352
54	557667 858 5170 328664 2 60 59 0 0 0 0
53	558525 1213 5170 328664 2 60 59 0.023296 0.02625 1.545796 0.040508328616
52	559738 858 5170 328664 2 60 59 2 2 118 236
73	560596 19026 235 328177 1.11 59.91 589 -1.4910652804569 1.4960972914815 -15.492910982244 949.5999510646
72	579622 19160 235 328177 1.11 59.91 589 -1.4676550573046 1.443132550893 -11.617155983451 665.11707684071
71	598782 12670 235 328177 1.11 59.91 589 36.55 36.55 21527.95 786846.5725
70	611452 18490 235 328177 1.11 59.91 589 131.3831703186 1768.7973824186 560332.47873994 664787547.98534
69	629942 18501 235 328177 1.11 59.91 589 26.488696441652 29.713305205038 16401.519468577 457157.73467446
67	648443 20386 235 328177 1.11 59.91 589 -0.021861808505278 0.014939181441232 -0.20380290185847 0.046718604405855
66	668829 18478 235 328177 1.11 59.91 589 19.935010645319 20.042503288962 11768.697182456 235148.39630621
68	687307 10314 235 328177 1.11 59.91 589 3 3 1767 5301
80	697621 23689 1312 328701 1.307225561772 60.007216861085 588 0.099999280538 0.100012761642 58.799990580199 5.8799981197324
79	721310 23695 1250 328636 1.297803561772 59.997807861085 588 0.099999280538 0.100012866973 58.800003580199 5.8800007198914
78	745005 16108 1312 328701 1.307225561772 60.007216861085 588 3 3 1764 5292
77	761113 16110 1250 328636 1.297803561772 59.997807861085 588 3 3 1764 5292
76	777223 858 5171 328665 2 60 59 0 0 0 0
75	778081 1213 5171 328665 2 60 59 0.023297 0.02625 1.545797 0.040508375209
74	779294 858 5171 328665 2 60 59 3 3 177 531
95	780152 19134 236 328178 1.11 59.91 589 -4.3415944074788 1.5003026741069 -9.3389115083779 811.02809504443
94	799286 19275 236 328178 1.11 59.91 589 -3.172939570414 1.4462525396294 -8.0981898991485 615.83096559117
93	818561 12670 236 328178 1.11 59.91 589 36.55 36.55 21527.95 786846.5725
92	831231 18488 236 328178 1.11 59.91 589 107.3831703186 1621.9914834108 520922.17788968 568290950.01827
91	849719 18498 236 328178 1.11 59.91 589 17.3360726781 29.711948419741 15173.580859536 396937.40177278
89	868217 19520 236 328178 1.11 59.91 589 -0.32783243364062 9.615080396693 1228.0547806 8319.7714617337
88	887737 18480 236 328178 1.11 59.91 589 19.975623730705 142.90565088604 37029.742078078 3845956.0341884
90	906217 10314 236 328178 1.11 59.91 589 4 4 2356 9424
102	916531 24286 902 328300 1.235040521052 59.93504448781 588 0.099999280533 0.100012897576 58.800003247644 5.8800006533831
101	940817 24259 1256 328642 1.297803641828 59.997808350682 588 0.099999280537 0.100012867326 58.80000398974 5.8800008017996
100	965076 16701 902 328300 1.235040521052 59.93504448781 588 4 4 2352 9408
99	981777 16099 1256 328642 1.297803641828 59.997808350682 588 4 4 2352 9408
98	997876 858 5172 328666 2 60 59 0 0 0 0
97	998734 1213 5172 328666 2 60 59 0.023297 0.02625 1.545797 0.040508375209
96	999947 858 5172 328666 2 60 59 4 4 236 944
117	1000805 19647 237 328179 1.11 59.91 589 -2.4011194928687 1.6725391335237 -18.147446155938 832.66818309988
116	1020452 19869 237 328179 1.11 59.91 589 -2.0640336557999 1.5846514415571 -15.235980045548 590.37063739002
115	1040321 13259 237 328179 1.11 59.91 589 36.55 36.55 21527.95 786846.5725
114	1053580 19076 237 328179 1.11 59.91 589 83.383170318604 1600.6831542522 509720.27452492 550544673.22978
113	1072656 19080 237 328179 1.11 59.91 589 19.323469381502 29.710213042635 15200.24851248 396945.07008975
111	1091736 20236 237 328179 1.11 59.91 589 -3.7038194925425 1.4743280946291 -26.586671044485 605.09968905457
110	1111972 19054 237 328179 1.11 59.91 589 1.9093369391539 20.044767086285 8846.4367178239 155753.62272243
112	1131026 10903 237 328179 1.11 59.91 589 5 5 2945 14725
124	1141929 24300 1178 328558 1.297390081439 59.9973809609 588 0.099999280531 0.10001275051 58.799990160347 5.8799980357614
123	1166229 24292 1262 328648 1.297803721883 59.99780842195 588 0.099999280536 0.100012867669 58.800003980953 5.8800008000422
122	1190521 16709 1178 328558 1.297390081439 59.9973809609 588 5 5 2940 14700
121	1207230 16710 1262 328648 1.297803721883 59.99780842195 588 5 5 2940 14700
120	1223940 917 5173 328667 2 60 59 0 0 0 0
119	1224857 1272 5173 328667 2 60 59 0.023297 0.02625 1.545797 0.040508375209
118	1226129 917 5173 328667 2 60 59 5 5 295 1475
139	1227046 19727 238 328180 1.11 59.91 589 -2.4235705657743 1.7081063760919 -24.068316639786 885.43390399121
138	1246773 19881 238 328180 1.11 59.91 589 -2.1886602266488 1.6350767614849 -21.302606629375 627.82055145518
137	1266654 13259 238 328180 1.11 59.91 589 36.55 36.55 21527.95 786846.5725
136	1279913 19104 238 328180 1.11 59.91 589 59.383172225952 1580.6070801194 498388.95754927 533170470.32574
135	1299017 19080 238 328180 1.11 59.91 589 20.03629285619 29.706849415803 15239.275795675 398173.94839705
133	1318097 20267 238 328180 1.11 59.91 589 -2.3223170776375 1.0092383484539 -38.87492339436 354.04416377034
132	1338364 19092 238 328180 1.11 59.91 589 4.7129456228174 20.006916377624 8976.0975213109 155783.41588978
134	1357456 10903 238 328180 1.11 59.91 589 6 6 3534 21204
146	1368359 24274 970 328350 1.248713681163 59.948704625962 588 0.09999928053 0.100012749457 58.799990225685 5.879998048829
145	1392633 24269 1268 328654 1.297803801938 59.997808489078 588 0.099999280533 0.100012867972 58.800003968026 5.8800007974568
144	1416902 16699 970 328350 1.248713681163 59.948704625962 588 6 6 3528 21168
143	1433601 16692 1268 328654 1.297803801938 59.997808489078 588 6 6 3528 21168
142	1450293 917 5174 328668 2 60 59 0 0 0 0
141	1451210 1272 5174 328668 2 60 59 0.023297 0.02625 1.545797 0.040508375209
140	1452482 917 5174 328668 2 60 59 6 6 354 2124
161	1453399 19008 239 328181 1.11 59.91 589 -2.2564350465407 1.7338902284546 -30.298401457766 948.93803695736
160	1472407 19822 239 328181 1.11 59.91 589 -2.1340723883025 1.641359478819 -27.014724689072 657.70778444881
159	1492229 13259 239 328181 1.11 59.91 589 36.55 36.55 21527.95 786846.5725
158	1505488 19084 239 328181 1.11 59.91 589 35.383171749115 1561.8661306978 486890.20431046 516049001.69705
157	1524572 19079 239 328181 1.11 59.91 589 20.785432563445 29.710144135823 15291.666904745 400381.87217596
155	1543651 20335 239 328181 1.11 59.91 589 -1.6328047509649 0.73414151167805 -52.178083004005 227.87575625347
154	1563986 19082 239 328181 1.11 59.91 589 6.1784449920942 20.011309407888 9143.8010609879 158393.92191616
156	1583068 10903 239 328181 1.11 59.91 589 7 7 4123 28861
168	1593971 24267 1040 328420 1.263894761218 59.96388568857 588 0.099999280531 0.100012756473 58.799990208238 5.8799980453401
167	1618238 24281 1274 328660 1.297803881994 59.997808551744 588 0.099999280535 0.100012868214 58.800003950636 5.8800007939788
166	1642519 16685 1040 328420 1.263894761218 59.96388568857 588 7 7 4116 28812
165	1659204 16704 1274 328660 1.297803881994 59.997808551744 588 7 7 4116 28812
164	1675908 917 5175 328669 2 60 59 0 0 0 0
163	1676825 1272 5175 328669 2 60 59 0.023297 0.02625 1.545797 0.040508375209
162	1678097 917 5175 328669 2 60 59 7 7 413 2891
