file 1679830 1512143538                                         
version 2
run SinusoidalAccInjectionAttack-112-20171201-16:51:24-88425
attr CACCSpacing 20
attr attackAcc -10
attr attackPos 7
attr attackSpeed 150
attr attackStart 30
attr attacker 4
attr beaconInterval 0.1
attr configname SinusoidalAccInjectionAttack
attr controller 2
attr datetime 20171201-16:51:24
attr experiment SinusoidalAccInjectionAttack
attr fakeAcc "(4 == 4)"
attr fakePos "(4 == 2)"
attr fakeSpeed "(4 == 3)"
attr inifile omnetpp_112.ini
attr iterationvars "$attacker=4, $attackSpeed=150, $attackPos=7, $attackAcc=-10, $leaderSpeed=150, $controller=2, $CACCSpacing=20, $sController=\"PLOEG\", $attackStart=30, $0=2, $1=0.5, $nCars=8, $platoonSize=8, $nLanes=1, $beaconInterval=0.1, $priority=2, $packetSize=200, $ploegH=0.5, $leaderHeadway=1.2, $fakeSpeed=(4 == 3), $fakeAcc=(4 == 4), $fakePos=(4 == 2)"
attr iterationvarsf attacker=4,attackSpeed=150,attackPos=7,attackAcc=-10,leaderSpeed=150,controller=2,CACCSpacing=20,sController=PLOEG,attackStart=30,2,0.5,nCars=8,platoonSize=8,nLanes=1,beaconInterval=0.1,priority=2,packetSize=200,ploegH=0.5,leaderHeadway=1.2,fakeSpeed=(4_==_3),fakeAcc=(4_==_4),fakePos=(4_==_2)-
attr leaderHeadway 1.2
attr leaderSpeed 150
attr measurement "$attacker=4, $attackSpeed=150, $attackPos=7, $attackAcc=-10, $leaderSpeed=150, $controller=2, $CACCSpacing=20, $sController=\"PLOEG\", $attackStart=30, $0=2, $1=0.5, $nCars=8, $platoonSize=8, $nLanes=1, $beaconInterval=0.1, $priority=2, $packetSize=200, $ploegH=0.5, $leaderHeadway=1.2, $fakeSpeed=(4 == 3), $fakeAcc=(4 == 4), $fakePos=(4 == 2)"
attr nCars 8
attr nLanes 1
attr network scenario
attr packetSize 200
attr platoonSize 8
attr ploegH 0.5
attr priority 2
attr processid 88425
attr repetition 2
attr replication #2
attr resultdir results
attr runnumber 112
attr sController "\"PLOEG\""
attr seedset 2
param **.coreDebug false
param **.debug false
param **.headway 0.1s
param **.numberOfCars 8
param **.numberOfCarsPerPlatoon 8
param **.numberOfLanes 1
param **.numericController 2
param **.traffic.nCars 8
param **.traffic.nLanes 1
param **.traffic.platoonInsertDistance 2m
param **.traffic.platoonInsertHeadway 0.5s
param **.traffic.platoonInsertSpeed 150kmph
param **.traffic.platoonInsertTime "1 s"
param **.traffic.platoonLeaderHeadway 1.2s
param **.traffic.platoonSize 8
param **.traffic.platooningVType "\"vtypeauto\""
param **.traffic_type "\"PlatoonsTrafficManager\""
param *.**.nic.mac1609_4.bitrate 6Mbps
param *.**.nic.mac1609_4.txPower 100mW
param *.**.nic.mac1609_4.useServiceChannel false
param *.**.nic.phy80211p.analogueModels "xmldoc(\"config.xml\")"
param *.**.nic.phy80211p.decider "xmldoc(\"config.xml\")"
param *.**.nic.phy80211p.maxTXPower 100mW
param *.**.nic.phy80211p.sensitivity -94dBm
param *.**.nic.phy80211p.thermalNoise -95dBm
param *.**.nic.phy80211p.usePropagationDelay true
param *.**.nic.phy80211p.useThermalNoise true
param *.annotations.draw false
param *.connectionManager.alpha 2.0
param *.connectionManager.carrierFrequency "5.890e9 Hz"
param *.connectionManager.pMax 100mW
param *.connectionManager.sat -94dBm
param *.connectionManager.sendDirect true
param *.manager.autoShutdown true
param *.manager.commandLine "\"sumo --remote-port $port --seed $seed --configuration-file $configFile\""
param *.manager.configFile "\"./sumocfg/freeway.sumo.cfg\""
param *.manager.host "\"localhost\""
param *.manager.margin 25
param *.manager.moduleDisplayString "\"\""
param *.manager.moduleName "\"node\""
param *.manager.moduleType "\"Car\""
param *.manager.updateInterval 0.01s
param *.node[*].appl.attackStart 30s
param *.node[*].appl.attackerType 4
param *.node[*].appl.simulationDuration "60 s"
param *.node[*].appl_type "\"SimplePlatooningApp\""
param *.node[*].helper.nCars 8
param *.node[*].helper.nLanes 1
param *.node[*].helper.platoonSize 8
param *.node[*].helper_type "\"PositionHelper\""
param *.node[*].mobility.x 0
param *.node[*].mobility.y 0
param *.node[*].mobility.z 1.895
param *.node[*].prot.attackStart 30s
param *.node[*].prot.attackerType 4
param *.node[*].prot.attackingNode 3
param *.node[*].prot.beaconingInterval 0.1s
param *.node[*].prot.fakeAcc "(4 == 4)"
param *.node[*].prot.fakePos "(4 == 2)"
param *.node[*].prot.fakeSpeed "(4 == 3)"
param *.node[*].prot.maliciousAcc "-10 mpss"
param *.node[*].prot.maliciousSpeed 150kmph
param *.node[*].prot.packetSize 200
param *.node[*].prot.priority 2
param *.node[*].prot.shiftX "7 m"
param *.node[*].prot.useControllerAcceleration true
param *.node[*].protocol_type "\"SimplePlatooningBeaconing\""
param *.node[*].scenario.accHeadway 0.1s
param *.node[*].scenario.caccC1 0.5
param *.node[*].scenario.caccOmegaN "0.2 Hz"
param *.node[*].scenario.caccSpacing 20m
param *.node[*].scenario.caccXi 1
param *.node[*].scenario.controller "\"PLOEG\""
param *.node[*].scenario.engineTau "0.5 s"
param *.node[*].scenario.leaderHeadway 1.2s
param *.node[*].scenario.leaderSpeed 150kmph
param *.node[*].scenario.ploegH 0.5s
param *.node[*].scenario.ploegKd 0.7
param *.node[*].scenario.ploegKp 0.2
param *.node[*].scenario.useRealisticEngine false
param *.node[*].scenario_type "\"SinusoidalScenario\""
param *.node[*].unicast.packetLossRate 0
param *.obstacles.debug false
param *.playgroundSizeX 65000m
param *.playgroundSizeY 25000m
param *.playgroundSizeZ 50m
param *.world.use2D false
param *.world.useTorus false

vector 0  scenario.node[0].appl  distance  ETV
vector 1  scenario.node[0].appl  relativeSpeed  ETV
vector 2  scenario.node[0].appl  nodeId  ETV
vector 6  scenario.node[0].appl  acceleration  ETV
vector 7  scenario.node[0].appl  controllerAcceleration  ETV
vector 3  scenario.node[0].appl  speed  ETV
vector 4  scenario.node[0].appl  posx  ETV
vector 5  scenario.node[0].appl  posy  ETV
vector 22  scenario.node[1].appl  distance  ETV
vector 23  scenario.node[1].appl  relativeSpeed  ETV
vector 24  scenario.node[1].appl  nodeId  ETV
vector 28  scenario.node[1].appl  acceleration  ETV
vector 29  scenario.node[1].appl  controllerAcceleration  ETV
vector 25  scenario.node[1].appl  speed  ETV
vector 26  scenario.node[1].appl  posx  ETV
vector 27  scenario.node[1].appl  posy  ETV
vector 44  scenario.node[2].appl  distance  ETV
vector 45  scenario.node[2].appl  relativeSpeed  ETV
vector 46  scenario.node[2].appl  nodeId  ETV
vector 50  scenario.node[2].appl  acceleration  ETV
vector 51  scenario.node[2].appl  controllerAcceleration  ETV
vector 47  scenario.node[2].appl  speed  ETV
vector 48  scenario.node[2].appl  posx  ETV
vector 49  scenario.node[2].appl  posy  ETV
vector 66  scenario.node[3].appl  distance  ETV
vector 67  scenario.node[3].appl  relativeSpeed  ETV
vector 68  scenario.node[3].appl  nodeId  ETV
vector 72  scenario.node[3].appl  acceleration  ETV
vector 73  scenario.node[3].appl  controllerAcceleration  ETV
vector 69  scenario.node[3].appl  speed  ETV
vector 70  scenario.node[3].appl  posx  ETV
vector 71  scenario.node[3].appl  posy  ETV
vector 88  scenario.node[4].appl  distance  ETV
vector 89  scenario.node[4].appl  relativeSpeed  ETV
vector 90  scenario.node[4].appl  nodeId  ETV
vector 94  scenario.node[4].appl  acceleration  ETV
vector 95  scenario.node[4].appl  controllerAcceleration  ETV
vector 91  scenario.node[4].appl  speed  ETV
vector 92  scenario.node[4].appl  posx  ETV
vector 93  scenario.node[4].appl  posy  ETV
vector 110  scenario.node[5].appl  distance  ETV
vector 111  scenario.node[5].appl  relativeSpeed  ETV
vector 112  scenario.node[5].appl  nodeId  ETV
vector 116  scenario.node[5].appl  acceleration  ETV
vector 117  scenario.node[5].appl  controllerAcceleration  ETV
vector 113  scenario.node[5].appl  speed  ETV
vector 114  scenario.node[5].appl  posx  ETV
vector 115  scenario.node[5].appl  posy  ETV
vector 132  scenario.node[6].appl  distance  ETV
vector 133  scenario.node[6].appl  relativeSpeed  ETV
vector 134  scenario.node[6].appl  nodeId  ETV
vector 138  scenario.node[6].appl  acceleration  ETV
vector 139  scenario.node[6].appl  controllerAcceleration  ETV
vector 135  scenario.node[6].appl  speed  ETV
vector 136  scenario.node[6].appl  posx  ETV
vector 137  scenario.node[6].appl  posy  ETV
vector 154  scenario.node[7].appl  distance  ETV
vector 155  scenario.node[7].appl  relativeSpeed  ETV
vector 156  scenario.node[7].appl  nodeId  ETV
vector 160  scenario.node[7].appl  acceleration  ETV
vector 161  scenario.node[7].appl  controllerAcceleration  ETV
vector 157  scenario.node[7].appl  speed  ETV
vector 158  scenario.node[7].appl  posx  ETV
vector 159  scenario.node[7].appl  posy  ETV
vector 168  scenario.node[7].prot  frontDelay  ETV
vector 166  scenario.node[7].prot  frontDelayId  ETV
vector 146  scenario.node[6].prot  frontDelay  ETV
vector 144  scenario.node[6].prot  frontDelayId  ETV
vector 35  scenario.node[1].prot  leaderDelay  ETV
vector 33  scenario.node[1].prot  leaderDelayId  ETV
vector 36  scenario.node[1].prot  frontDelay  ETV
vector 34  scenario.node[1].prot  frontDelayId  ETV
vector 57  scenario.node[2].prot  leaderDelay  ETV
vector 55  scenario.node[2].prot  leaderDelayId  ETV
vector 79  scenario.node[3].prot  leaderDelay  ETV
vector 77  scenario.node[3].prot  leaderDelayId  ETV
vector 101  scenario.node[4].prot  leaderDelay  ETV
vector 99  scenario.node[4].prot  leaderDelayId  ETV
vector 123  scenario.node[5].prot  leaderDelay  ETV
vector 121  scenario.node[5].prot  leaderDelayId  ETV
vector 145  scenario.node[6].prot  leaderDelay  ETV
vector 143  scenario.node[6].prot  leaderDelayId  ETV
vector 167  scenario.node[7].prot  leaderDelay  ETV
vector 165  scenario.node[7].prot  leaderDelayId  ETV
vector 102  scenario.node[4].prot  frontDelay  ETV
vector 100  scenario.node[4].prot  frontDelayId  ETV
vector 80  scenario.node[3].prot  frontDelay  ETV
vector 78  scenario.node[3].prot  frontDelayId  ETV
vector 124  scenario.node[5].prot  frontDelay  ETV
vector 122  scenario.node[5].prot  frontDelayId  ETV
vector 58  scenario.node[2].prot  frontDelay  ETV
vector 56  scenario.node[2].prot  frontDelayId  ETV
vector 8  scenario.node[0].prot  nodeId  ETV
vector 9  scenario.node[0].prot  busyTime  ETV
vector 10  scenario.node[0].prot  collisions  ETV
vector 30  scenario.node[1].prot  nodeId  ETV
vector 31  scenario.node[1].prot  busyTime  ETV
vector 32  scenario.node[1].prot  collisions  ETV
vector 52  scenario.node[2].prot  nodeId  ETV
vector 53  scenario.node[2].prot  busyTime  ETV
vector 54  scenario.node[2].prot  collisions  ETV
vector 74  scenario.node[3].prot  nodeId  ETV
vector 75  scenario.node[3].prot  busyTime  ETV
vector 76  scenario.node[3].prot  collisions  ETV
vector 96  scenario.node[4].prot  nodeId  ETV
vector 97  scenario.node[4].prot  busyTime  ETV
vector 98  scenario.node[4].prot  collisions  ETV
vector 118  scenario.node[5].prot  nodeId  ETV
vector 119  scenario.node[5].prot  busyTime  ETV
vector 120  scenario.node[5].prot  collisions  ETV
vector 140  scenario.node[6].prot  nodeId  ETV
vector 141  scenario.node[6].prot  busyTime  ETV
vector 142  scenario.node[6].prot  collisions  ETV
vector 162  scenario.node[7].prot  nodeId  ETV
vector 163  scenario.node[7].prot  busyTime  ETV
vector 164  scenario.node[7].prot  collisions  ETV
7	11100 13862 232 328174 1.11 59.91 589 -1.5 1.5 -14.445978168666 993.24092374633
6	24962 18591 232 328174 1.11 59.91 589 -1.4722746794739 1.4513434175775 -12.507273387293 675.29835233824
5	43553 12081 232 328174 1.11 59.91 589 36.55 36.55 21527.95 786846.5725
4	55634 17908 232 328174 1.11 59.91 589 226.89330558737 2681.2094381742 857256.02723689 1543913480.7167
3	73542 17882 232 328174 1.11 59.91 589 40.376854748618 43.631381416411 24584.394369227 1026576.1694128
1	91424 9725 232 328174 1.11 59.91 589 0 0 0 0
0	101149 10314 232 328174 1.11 59.91 589 -1 -1 -589 589
2	111463 9725 232 328174 1.11 59.91 589 0 0 0 0
10	121188 858 5168 328662 2 60 59 0 0 0 0
9	122046 1154 5168 328662 2 60 59 0.023297 0.02625 1.545797 0.040508375209
8	123200 799 5168 328662 2 60 59 0 0 0 0
29	123999 18769 233 328175 1.11 59.91 589 -1.5368751592696 1.5 -12.682635888535 739.36274730072
28	142768 19218 233 328175 1.11 59.91 589 -1.4452180916933 1.3654348381735 -6.5948273462638 520.18260230678
27	161986 12670 233 328175 1.11 59.91 589 36.55 36.55 21527.95 786846.5725
26	174656 18496 233 328175 1.11 59.91 589 200.05996208191 2654.7646260769 841419.39363672 1498265986.6932
25	193152 18497 233 328175 1.11 59.91 589 40.55965958555 43.468915564173 24588.491720223 1026824.0097437
23	211649 19570 233 328175 1.11 59.91 589 -0.73571950171136 0.71676476695129 -3.9722782616609 147.35856173186
22	231219 18498 233 328175 1.11 59.91 589 22.248546356529 23.769496108235 13480.715547188 308640.3327066
24	249717 10314 233 328175 1.11 59.91 589 1 1 589 589
36	260031 23669 1034 328420 1.262218774697 59.962220446777 588 0.099987534289 0.100000881572 58.80000164122 5.880000330324
35	283700 23669 1034 328420 1.262218774697 59.962220446777 588 0.099987534289 0.100000881572 58.80000164122 5.880000330324
34	307369 16131 1034 328420 1.262218774697 59.962220446777 588 1 1 588 588
33	323500 16131 1034 328420 1.262218774697 59.962220446777 588 1 1 588 588
32	339631 858 5169 328663 2 60 59 0 0 0 0
31	340489 1213 5169 328663 2 60 59 0.023296 0.02625 1.545796 0.040508328616
30	341702 858 5169 328663 2 60 59 1 1 59 59
51	342560 19195 234 328176 1.11 59.91 589 -1.5020343700358 1.4239701737948 -6.1765924333029 565.38174920284
50	361755 19327 234 328176 1.11 59.91 589 -1.354432990005 1.2301166294208 -0.053339640045635 397.13456206049
49	381082 12670 234 328176 1.11 59.91 589 36.55 36.55 21527.95 786846.5725
48	393752 18495 234 328176 1.11 59.91 589 173.22663383484 2627.975704467 825590.65476079 1453492942.2515
47	412247 18492 234 328176 1.11 59.91 589 40.704455921079 43.340734530213 24589.164687108 1026807.3744748
45	430739 19498 234 328176 1.11 59.91 589 -0.68794289697624 0.6391407489143 -0.60701861234001 108.57132230999
44	450237 18497 234 328176 1.11 59.91 589 22.318995365092 23.686468274203 13472.752335268 308252.14745775
46	468734 10314 234 328176 1.11 59.91 589 2 2 1178 2356
58	479048 23671 1312 328707 1.302598580254 60.002600593922 588 0.099987390309 0.100012959521 58.800001982808 5.8800003989661
57	502719 23661 1040 328426 1.262218864204 59.962220536026 588 0.0999875344 0.100000881665 58.800001640962 5.8800003302724
56	526380 16132 1312 328707 1.302598580254 60.002600593922 588 2 2 1176 2352
55	542512 16127 1040 328426 1.262218864204 59.962220536026 588 2 2 1176 2352
54	558639 858 5170 328664 2 60 59 0 0 0 0
53	559497 1213 5170 328664 2 60 59 0.023297 0.02625 1.545797 0.040508375209
52	560710 858 5170 328664 2 60 59 2 2 118 236
73	561568 19299 235 328177 1.11 59.91 589 -1.4075544969405 1.2826658910187 0.62269048632448 431.56230444135
72	580867 19418 235 328177 1.11 59.91 589 -1.2452157771406 1.0854287367472 4.8949239153657 305.48110227457
71	600285 12670 235 328177 1.11 59.91 589 36.55 36.55 21527.95 786846.5725
70	612955 18492 235 328177 1.11 59.91 589 146.39329795837 2600.9132874586 809762.69123748 1409573830.9603
69	631447 18505 235 328177 1.11 59.91 589 40.819897732722 43.239148872155 24587.044206247 1026574.863485
67	649952 19582 235 328177 1.11 59.91 589 -0.63471143879947 0.56708757115456 2.1210142578155 83.354778098589
66	669534 18495 235 328177 1.11 59.91 589 22.381527645167 23.632032130481 13471.921113696 308198.42422463
68	688029 10314 235 328177 1.11 59.91 589 3 3 1767 5301
80	698343 23675 1176 328562 1.287875132722 59.98787680654 588 0.099987372383 0.100012981333 58.800001642958 5.880000330997
79	722018 23638 1046 328432 1.26221895371 59.962220626214 588 0.099987534387 0.100000881837 58.800001641644 5.8800003304088
78	745656 16125 1176 328562 1.287875132722 59.98787680654 588 3 3 1764 5292
77	761781 16089 1046 328432 1.26221895371 59.962220626214 588 3 3 1764 5292
76	777870 858 5171 328665 2 60 59 0 0 0 0
75	778728 1213 5171 328665 2 60 59 0.023297 0.02625 1.545797 0.040508375209
74	779941 858 5171 328665 2 60 59 3 3 177 531
95	780799 18152 236 328178 1.11 59.91 589 -7.2112219814044 1.5 3.3854447657318 1162.0014185793
94	798951 19362 236 328178 1.11 59.91 589 -6.1353032804853 1.4999999821917 0.50487745823489 965.88284367796
93	818313 12670 236 328178 1.11 59.91 589 36.55 36.55 21527.95 786846.5725
92	830983 18489 236 328178 1.11 59.91 589 119.5599697113 2523.1642312594 779532.82346777 1309368728.0917
91	849472 18497 236 328178 1.11 59.91 589 30.126152768044 45.876130101973 24077.722502027 990420.69199459
89	867969 19304 236 328178 1.11 59.91 589 -4.4616632042811 12.116885303472 509.27275498032 6593.969996255
88	887273 18490 236 328178 1.11 59.91 589 22.434736589793 92.329304722189 27863.681335626 1754378.1791234
90	905763 10314 236 328178 1.11 59.91 589 4 4 2356 9424
102	916077 24227 1108 328500 1.276581043216 59.976582885644 588 0.099987376079 0.100012986973 58.800001811568 5.880000364719
101	940304 24243 1052 328438 1.262219043216 59.962220885631 588 0.099987536643 0.100000881121 58.800001811555 5.8800003643911
100	964547 16684 1108 328500 1.276581043216 59.976582885644 588 4 4 2352 9408
99	981231 16118 1052 328438 1.262219043216 59.962220885631 588 4 4 2352 9408
98	997349 858 5172 328666 2 60 59 0 0 0 0
97	998207 1213 5172 328666 2 60 59 0.023297 0.02625 1.545797 0.040508375209
96	999420 858 5172 328666 2 60 59 4 4 236 944
117	1000278 19938 237 328179 1.11 59.91 589 -6.3349680542301 1.57817009532 0.20358137648176 1019.4587259351
116	1020216 19978 237 328179 1.11 59.91 589 -5.5829517877598 1.5429555048975 -2.0505570737122 869.58923330652
115	1040194 13259 237 328179 1.11 59.91 589 36.55 36.55 21527.95 786846.5725
114	1053453 19084 237 328179 1.11 59.91 589 92.726633834839 2496.4239350613 763959.71533338 1268617903.5895
113	1072537 19100 237 328179 1.11 59.91 589 30.302676073423 45.798638646692 24078.564560219 990363.55024599
111	1091637 20145 237 328179 1.11 59.91 589 -2.8201821484275 0.75663313800247 -0.84710696576708 213.71444176069
110	1111782 19065 237 328179 1.11 59.91 589 17.156684762488 24.827432856381 13217.124975547 298053.22678105
112	1130847 10903 237 328179 1.11 59.91 589 5 5 2945 14725
124	1141750 24229 1244 328624 1.297505311735 59.997507155247 588 0.099987326328 0.100012974749 58.800001812652 5.8800003649372
123	1165979 24254 1058 328444 1.262219132723 59.962220974869 588 0.099987536889 0.100000881368 58.800001811286 5.8800003643373
122	1190233 16700 1244 328624 1.297505311735 59.997507155247 588 5 5 2940 14700
121	1206933 16710 1058 328444 1.262219132723 59.962220974869 588 5 5 2940 14700
120	1223643 917 5173 328667 2 60 59 0 0 0 0
119	1224560 1272 5173 328667 2 60 59 0.023297 0.02625 1.545797 0.040508375209
118	1225832 917 5173 328667 2 60 59 5 5 295 1475
139	1226749 19963 238 328180 1.11 59.91 589 -5.7427955356936 1.6317514648379 -2.3618192368851 913.27592723819
138	1246712 19999 238 328180 1.11 59.91 589 -5.1595861940832 1.5863586843956 -3.3085341209976 794.13822878195
137	1266711 13259 238 328180 1.11 59.91 589 36.55 36.55 21527.95 786846.5725
136	1279970 19084 238 328180 1.11 59.91 589 65.893301773071 2469.7593888769 748385.80587542 1228696094.5537
135	1299054 19075 238 328180 1.11 59.91 589 30.440161779194 45.722040327236 24080.210367836 990383.77407918
133	1318129 20126 238 328180 1.11 59.91 589 -2.595212015987 0.77246033270734 -1.6253020463369 193.74885638376
132	1338255 19085 238 328180 1.11 59.91 589 17.238833112268 24.791100954577 13217.942374116 298061.66362572
134	1357340 10903 238 328180 1.11 59.91 589 6 6 3534 21204
146	1368243 24238 970 328350 1.247596327165 59.947597831346 588 0.099987266367 0.10001296265 58.800001473321 5.8800002970723
145	1392481 24240 1064 328450 1.262219222229 59.962221063834 588 0.09998753715 0.100000881613 58.800001810745 5.880000364229
144	1416721 16705 970 328350 1.247596327165 59.947597831346 588 6 6 3528 21168
143	1433426 16690 1064 328450 1.262219222229 59.962221063834 588 6 6 3528 21168
142	1450116 917 5174 328668 2 60 59 0 0 0 0
141	1451033 1272 5174 328668 2 60 59 0.023297 0.02625 1.545797 0.040508375209
140	1452305 917 5174 328668 2 60 59 6 6 354 2124
161	1453222 19991 239 328181 1.11 59.91 589 -5.3045682963576 1.6731859140144 -3.5329204210368 833.42813127085
160	1473213 20018 239 328181 1.11 59.91 589 -4.8197766287913 1.6220740386146 -3.1229701938333 734.17929341232
159	1493231 13259 239 328181 1.11 59.91 589 36.55 36.55 21527.95 786846.5725
158	1506490 19083 239 328181 1.11 59.91 589 39.059966850281 2443.0934572735 732811.00530037 1189602947.25
157	1525573 19087 239 328181 1.11 59.91 589 30.556922558843 45.647672334174 24081.892922915 990417.70969402
155	1544660 20222 239 328181 1.11 59.91 589 -2.4157539296267 0.78582860449865 -1.6494697380022 177.85136397138
154	1564882 19082 239 328181 1.11 59.91 589 17.307675183067 24.753387782577 13218.834226157 298074.84311833
156	1583964 10903 239 328181 1.11 59.91 589 7 7 4123 28861
168	1594867 24229 832 328218 1.212138058646 59.912126564495 588 0.099987462893 0.100000881392 58.799988474989 5.8799976972318
167	1619096 24237 1070 328456 1.262219311736 59.962221152778 588 0.099987537411 0.100000881857 58.800001810182 5.8800003641164
166	1643333 16694 832 328218 1.212138058646 59.912126564495 588 7 7 4116 28812
165	1660027 16697 1070 328456 1.262219311736 59.962221152778 588 7 7 4116 28812
164	1676724 917 5175 328669 2 60 59 0 0 0 0
163	1677641 1272 5175 328669 2 60 59 0.023297 0.02625 1.545797 0.040508375209
162	1678913 917 5175 328669 2 60 59 7 7 413 2891
