file 967109 1512144375                                          
version 2
run SinusoidalAccInjectionAttack-294-20171201-17:05:57-36961
attr CACCSpacing 20
attr attackAcc 30
attr attackPos 7
attr attackSpeed 150
attr attackStart 30
attr attacker 4
attr beaconInterval 0.1
attr configname SinusoidalAccInjectionAttack
attr controller 2
attr datetime 20171201-17:05:57
attr experiment SinusoidalAccInjectionAttack
attr fakeAcc "(4 == 4)"
attr fakePos "(4 == 2)"
attr fakeSpeed "(4 == 3)"
attr inifile omnetpp_294.ini
attr iterationvars "$attacker=4, $attackSpeed=150, $attackPos=7, $attackAcc=30, $leaderSpeed=150, $controller=2, $CACCSpacing=20, $sController=\"PLOEG\", $attackStart=30, $0=2, $1=0.5, $nCars=8, $platoonSize=8, $nLanes=1, $beaconInterval=0.1, $priority=2, $packetSize=200, $ploegH=0.5, $leaderHeadway=1.2, $fakeSpeed=(4 == 3), $fakeAcc=(4 == 4), $fakePos=(4 == 2)"
attr iterationvarsf attacker=4,attackSpeed=150,attackPos=7,attackAcc=30,leaderSpeed=150,controller=2,CACCSpacing=20,sController=PLOEG,attackStart=30,2,0.5,nCars=8,platoonSize=8,nLanes=1,beaconInterval=0.1,priority=2,packetSize=200,ploegH=0.5,leaderHeadway=1.2,fakeSpeed=(4_==_3),fakeAcc=(4_==_4),fakePos=(4_==_2)-
attr leaderHeadway 1.2
attr leaderSpeed 150
attr measurement "$attacker=4, $attackSpeed=150, $attackPos=7, $attackAcc=30, $leaderSpeed=150, $controller=2, $CACCSpacing=20, $sController=\"PLOEG\", $attackStart=30, $0=2, $1=0.5, $nCars=8, $platoonSize=8, $nLanes=1, $beaconInterval=0.1, $priority=2, $packetSize=200, $ploegH=0.5, $leaderHeadway=1.2, $fakeSpeed=(4 == 3), $fakeAcc=(4 == 4), $fakePos=(4 == 2)"
attr nCars 8
attr nLanes 1
attr network scenario
attr packetSize 200
attr platoonSize 8
attr ploegH 0.5
attr priority 2
attr processid 36961
attr repetition 4
attr replication #4
attr resultdir results
attr runnumber 294
attr sController "\"PLOEG\""
attr seedset 4
param **.coreDebug false
param **.debug false
param **.headway 0.1s
param **.numberOfCars 8
param **.numberOfCarsPerPlatoon 8
param **.numberOfLanes 1
param **.numericController 2
param **.traffic.nCars 8
param **.traffic.nLanes 1
param **.traffic.platoonInsertDistance 2m
param **.traffic.platoonInsertHeadway 0.5s
param **.traffic.platoonInsertSpeed 150kmph
param **.traffic.platoonInsertTime "1 s"
param **.traffic.platoonLeaderHeadway 1.2s
param **.traffic.platoonSize 8
param **.traffic.platooningVType "\"vtypeauto\""
param **.traffic_type "\"PlatoonsTrafficManager\""
param *.**.nic.mac1609_4.bitrate 6Mbps
param *.**.nic.mac1609_4.txPower 100mW
param *.**.nic.mac1609_4.useServiceChannel false
param *.**.nic.phy80211p.analogueModels "xmldoc(\"config.xml\")"
param *.**.nic.phy80211p.decider "xmldoc(\"config.xml\")"
param *.**.nic.phy80211p.maxTXPower 100mW
param *.**.nic.phy80211p.sensitivity -94dBm
param *.**.nic.phy80211p.thermalNoise -95dBm
param *.**.nic.phy80211p.usePropagationDelay true
param *.**.nic.phy80211p.useThermalNoise true
param *.annotations.draw false
param *.connectionManager.alpha 2.0
param *.connectionManager.carrierFrequency "5.890e9 Hz"
param *.connectionManager.pMax 100mW
param *.connectionManager.sat -94dBm
param *.connectionManager.sendDirect true
param *.manager.autoShutdown true
param *.manager.commandLine "\"sumo --remote-port $port --seed $seed --configuration-file $configFile\""
param *.manager.configFile "\"./sumocfg/freeway.sumo.cfg\""
param *.manager.host "\"localhost\""
param *.manager.margin 25
param *.manager.moduleDisplayString "\"\""
param *.manager.moduleName "\"node\""
param *.manager.moduleType "\"Car\""
param *.manager.updateInterval 0.01s
param *.node[*].appl.attackStart 30s
param *.node[*].appl.attackerType 4
param *.node[*].appl.simulationDuration "60 s"
param *.node[*].appl_type "\"SimplePlatooningApp\""
param *.node[*].helper.nCars 8
param *.node[*].helper.nLanes 1
param *.node[*].helper.platoonSize 8
param *.node[*].helper_type "\"PositionHelper\""
param *.node[*].mobility.x 0
param *.node[*].mobility.y 0
param *.node[*].mobility.z 1.895
param *.node[*].prot.attackStart 30s
param *.node[*].prot.attackerType 4
param *.node[*].prot.attackingNode 3
param *.node[*].prot.beaconingInterval 0.1s
param *.node[*].prot.fakeAcc "(4 == 4)"
param *.node[*].prot.fakePos "(4 == 2)"
param *.node[*].prot.fakeSpeed "(4 == 3)"
param *.node[*].prot.maliciousAcc "30 mpss"
param *.node[*].prot.maliciousSpeed 150kmph
param *.node[*].prot.packetSize 200
param *.node[*].prot.priority 2
param *.node[*].prot.shiftX "7 m"
param *.node[*].prot.useControllerAcceleration true
param *.node[*].protocol_type "\"SimplePlatooningBeaconing\""
param *.node[*].scenario.accHeadway 0.1s
param *.node[*].scenario.caccC1 0.5
param *.node[*].scenario.caccOmegaN "0.2 Hz"
param *.node[*].scenario.caccSpacing 20m
param *.node[*].scenario.caccXi 1
param *.node[*].scenario.controller "\"PLOEG\""
param *.node[*].scenario.engineTau "0.5 s"
param *.node[*].scenario.leaderHeadway 1.2s
param *.node[*].scenario.leaderSpeed 150kmph
param *.node[*].scenario.ploegH 0.5s
param *.node[*].scenario.ploegKd 0.7
param *.node[*].scenario.ploegKp 0.2
param *.node[*].scenario.useRealisticEngine false
param *.node[*].scenario_type "\"SinusoidalScenario\""
param *.node[*].unicast.packetLossRate 0
param *.obstacles.debug false
param *.playgroundSizeX 65000m
param *.playgroundSizeY 25000m
param *.playgroundSizeZ 50m
param *.world.use2D false
param *.world.useTorus false

vector 0  scenario.node[0].appl  distance  ETV
vector 1  scenario.node[0].appl  relativeSpeed  ETV
vector 2  scenario.node[0].appl  nodeId  ETV
vector 6  scenario.node[0].appl  acceleration  ETV
vector 7  scenario.node[0].appl  controllerAcceleration  ETV
vector 3  scenario.node[0].appl  speed  ETV
vector 4  scenario.node[0].appl  posx  ETV
vector 5  scenario.node[0].appl  posy  ETV
vector 22  scenario.node[1].appl  distance  ETV
vector 23  scenario.node[1].appl  relativeSpeed  ETV
vector 24  scenario.node[1].appl  nodeId  ETV
vector 28  scenario.node[1].appl  acceleration  ETV
vector 29  scenario.node[1].appl  controllerAcceleration  ETV
vector 25  scenario.node[1].appl  speed  ETV
vector 26  scenario.node[1].appl  posx  ETV
vector 27  scenario.node[1].appl  posy  ETV
vector 44  scenario.node[2].appl  distance  ETV
vector 45  scenario.node[2].appl  relativeSpeed  ETV
vector 46  scenario.node[2].appl  nodeId  ETV
vector 50  scenario.node[2].appl  acceleration  ETV
vector 51  scenario.node[2].appl  controllerAcceleration  ETV
vector 47  scenario.node[2].appl  speed  ETV
vector 48  scenario.node[2].appl  posx  ETV
vector 49  scenario.node[2].appl  posy  ETV
vector 66  scenario.node[3].appl  distance  ETV
vector 67  scenario.node[3].appl  relativeSpeed  ETV
vector 68  scenario.node[3].appl  nodeId  ETV
vector 72  scenario.node[3].appl  acceleration  ETV
vector 73  scenario.node[3].appl  controllerAcceleration  ETV
vector 69  scenario.node[3].appl  speed  ETV
vector 70  scenario.node[3].appl  posx  ETV
vector 71  scenario.node[3].appl  posy  ETV
vector 88  scenario.node[4].appl  distance  ETV
vector 89  scenario.node[4].appl  relativeSpeed  ETV
vector 90  scenario.node[4].appl  nodeId  ETV
vector 94  scenario.node[4].appl  acceleration  ETV
vector 95  scenario.node[4].appl  controllerAcceleration  ETV
vector 91  scenario.node[4].appl  speed  ETV
vector 92  scenario.node[4].appl  posx  ETV
vector 93  scenario.node[4].appl  posy  ETV
vector 110  scenario.node[5].appl  distance  ETV
vector 111  scenario.node[5].appl  relativeSpeed  ETV
vector 112  scenario.node[5].appl  nodeId  ETV
vector 116  scenario.node[5].appl  acceleration  ETV
vector 117  scenario.node[5].appl  controllerAcceleration  ETV
vector 113  scenario.node[5].appl  speed  ETV
vector 114  scenario.node[5].appl  posx  ETV
vector 115  scenario.node[5].appl  posy  ETV
vector 132  scenario.node[6].appl  distance  ETV
vector 133  scenario.node[6].appl  relativeSpeed  ETV
vector 134  scenario.node[6].appl  nodeId  ETV
vector 138  scenario.node[6].appl  acceleration  ETV
vector 139  scenario.node[6].appl  controllerAcceleration  ETV
vector 135  scenario.node[6].appl  speed  ETV
vector 136  scenario.node[6].appl  posx  ETV
vector 137  scenario.node[6].appl  posy  ETV
vector 154  scenario.node[7].appl  distance  ETV
vector 155  scenario.node[7].appl  relativeSpeed  ETV
vector 156  scenario.node[7].appl  nodeId  ETV
vector 160  scenario.node[7].appl  acceleration  ETV
vector 161  scenario.node[7].appl  controllerAcceleration  ETV
vector 157  scenario.node[7].appl  speed  ETV
vector 158  scenario.node[7].appl  posx  ETV
vector 159  scenario.node[7].appl  posy  ETV
vector 102  scenario.node[4].prot  frontDelay  ETV
vector 100  scenario.node[4].prot  frontDelayId  ETV
vector 35  scenario.node[1].prot  leaderDelay  ETV
vector 33  scenario.node[1].prot  leaderDelayId  ETV
vector 36  scenario.node[1].prot  frontDelay  ETV
vector 34  scenario.node[1].prot  frontDelayId  ETV
vector 57  scenario.node[2].prot  leaderDelay  ETV
vector 55  scenario.node[2].prot  leaderDelayId  ETV
vector 79  scenario.node[3].prot  leaderDelay  ETV
vector 77  scenario.node[3].prot  leaderDelayId  ETV
vector 101  scenario.node[4].prot  leaderDelay  ETV
vector 99  scenario.node[4].prot  leaderDelayId  ETV
vector 123  scenario.node[5].prot  leaderDelay  ETV
vector 121  scenario.node[5].prot  leaderDelayId  ETV
vector 145  scenario.node[6].prot  leaderDelay  ETV
vector 143  scenario.node[6].prot  leaderDelayId  ETV
vector 167  scenario.node[7].prot  leaderDelay  ETV
vector 165  scenario.node[7].prot  leaderDelayId  ETV
vector 80  scenario.node[3].prot  frontDelay  ETV
vector 78  scenario.node[3].prot  frontDelayId  ETV
vector 146  scenario.node[6].prot  frontDelay  ETV
vector 144  scenario.node[6].prot  frontDelayId  ETV
vector 58  scenario.node[2].prot  frontDelay  ETV
vector 56  scenario.node[2].prot  frontDelayId  ETV
vector 124  scenario.node[5].prot  frontDelay  ETV
vector 122  scenario.node[5].prot  frontDelayId  ETV
vector 168  scenario.node[7].prot  frontDelay  ETV
vector 166  scenario.node[7].prot  frontDelayId  ETV
vector 8  scenario.node[0].prot  nodeId  ETV
vector 9  scenario.node[0].prot  busyTime  ETV
vector 10  scenario.node[0].prot  collisions  ETV
vector 30  scenario.node[1].prot  nodeId  ETV
vector 31  scenario.node[1].prot  busyTime  ETV
vector 32  scenario.node[1].prot  collisions  ETV
vector 52  scenario.node[2].prot  nodeId  ETV
vector 53  scenario.node[2].prot  busyTime  ETV
vector 54  scenario.node[2].prot  collisions  ETV
vector 74  scenario.node[3].prot  nodeId  ETV
vector 75  scenario.node[3].prot  busyTime  ETV
vector 76  scenario.node[3].prot  collisions  ETV
vector 96  scenario.node[4].prot  nodeId  ETV
vector 97  scenario.node[4].prot  busyTime  ETV
vector 98  scenario.node[4].prot  collisions  ETV
vector 118  scenario.node[5].prot  nodeId  ETV
vector 119  scenario.node[5].prot  busyTime  ETV
vector 120  scenario.node[5].prot  collisions  ETV
vector 140  scenario.node[6].prot  nodeId  ETV
vector 141  scenario.node[6].prot  busyTime  ETV
vector 142  scenario.node[6].prot  collisions  ETV
vector 162  scenario.node[7].prot  nodeId  ETV
vector 163  scenario.node[7].prot  busyTime  ETV
vector 164  scenario.node[7].prot  collisions  ETV
7	11095 8145 232 189846 1.11 35.11 341 -1.5 1.5 -11.677980802834 541.608830972
6	19240 10715 232 189846 1.11 35.11 341 -1.4722746794739 1.4513407705138 -12.909525951162 366.44298648907
5	29955 6873 232 189846 1.11 35.11 341 36.55 36.55 12463.55 455542.7525
4	36828 10235 232 189846 1.11 35.11 341 238.27520256003 1659.0036924955 323893.21712791 365323711.43675
3	47063 10232 232 189846 1.11 35.11 341 40.376864578797 43.631381416411 14248.499548111 595618.20835682
1	57295 5509 232 189846 1.11 35.11 341 0 0 0 0
0	62804 5850 232 189846 1.11 35.11 341 -1 -1 -341 341
2	68654 5509 232 189846 1.11 35.11 341 0 0 0 0
10	74163 484 5234 189278 2 35 34 0 0 0 0
9	74647 655 5234 189278 2 35 34 0.023625 0.02625 0.889875 0.023297203125
8	75302 450 5234 189278 2 35 34 0 0 0 0
29	75752 10949 233 189847 1.11 35.11 341 -1.5218249787759 1.5 -13.415425271021 395.06002471083
28	86701 11062 233 189847 1.11 35.11 341 -1.4294163630005 1.35848924754 -8.8572293368529 279.4224982947
27	97763 7214 233 189847 1.11 35.11 341 36.55 36.55 12463.55 455542.7525
26	104977 10590 233 189847 1.11 35.11 341 211.44185905457 1632.658902295 314720.05584192 348157121.23429
25	115567 10587 233 189847 1.11 35.11 341 40.568624371117 43.458779865428 14253.534086317 595981.06590894
23	126154 11263 233 189847 1.11 35.11 341 -0.71716504108316 0.6957299434639 -4.9054429461566 75.027496299175
22	137417 10579 233 189847 1.11 35.11 341 22.255790202108 23.744671811215 7809.2619767576 178893.86752422
24	147996 5850 233 189847 1.11 35.11 341 1 1 341 341
36	153846 13544 964 189465 1.241824685189 35.041826493922 339 0.099999821756 0.100012872565 33.900001777872 3.3900003557407
35	167390 13544 964 189465 1.241824685189 35.041826493922 339 0.099999821756 0.100012872565 33.900001777872 3.3900003557407
34	180934 9177 964 189465 1.241824685189 35.041826493922 339 1 1 339 339
33	190111 9177 964 189465 1.241824685189 35.041826493922 339 1 1 339 339
32	199288 484 5235 189279 2 35 34 0 0 0 0
31	199772 689 5235 189279 2 35 34 0.023625 0.02625 0.889875 0.023297203125
30	200461 484 5235 189279 2 35 34 1 1 34 34
51	200945 11077 234 189848 1.11 35.11 341 -1.4848835446094 1.4124378224008 -8.7028604084029 302.64309174803
50	212022 11137 234 189848 1.11 35.11 341 -1.3416405151503 1.2224314299566 -2.6966824839462 212.60793300863
49	223159 7214 234 189848 1.11 35.11 341 36.55 36.55 12463.55 455542.7525
48	230373 10570 234 189848 1.11 35.11 341 184.6085308075 1606.0086058918 305546.22046863 331480536.71529
47	240943 10584 234 189848 1.11 35.11 341 40.712028439819 43.331606975843 14255.58207048 596112.2644645
45	251527 11214 234 189848 1.11 35.11 341 -0.68154799672995 0.6353472376136 -1.9594118694386 58.049037301913
44	262741 10588 234 189848 1.11 35.11 341 22.323765831944 23.681895273849 7809.8763329729 178911.31927534
46	273329 5850 234 189848 1.11 35.11 341 2 2 682 1364
58	279179 13564 1176 189677 1.281934490746 35.081936206609 339 0.099999817332 0.100012969197 33.900001685002 3.3900003371692
57	292743 13545 970 189471 1.241824774696 35.041826582965 339 0.099999821541 0.100012872404 33.900001777408 3.3900003556479
56	306288 9177 1176 189677 1.281934490746 35.081936206609 339 2 2 678 1356
55	315465 9167 970 189471 1.241824774696 35.041826582965 339 2 2 678 1356
54	324632 484 5236 189280 2 35 34 0 0 0 0
53	325116 689 5236 189280 2 35 34 0.023625 0.02625 0.889875 0.023297203125
52	325805 484 5236 189280 2 35 34 2 2 68 136
73	326289 11112 235 189849 1.11 35.11 341 -1.3922110466735 1.2719526520862 -2.151900067599 230.22222967989
72	337401 11192 235 189849 1.11 35.11 341 -1.2341601764817 1.0770926650402 2.8354380505775 161.63701352244
71	348593 7214 235 189849 1.11 35.11 341 36.55 36.55 12463.55 455542.7525
70	355807 10583 235 189849 1.11 35.11 341 157.77520256042 1579.0600281187 296372.56953832 315297151.52906
69	366390 10584 235 189849 1.11 35.11 341 40.828105006585 43.230808481628 14254.621585062 596003.16001151
67	376974 11222 235 189849 1.11 35.11 341 -0.62920931327513 0.56249549787967 0.98745224272062 44.073883456628
66	388196 10586 235 189849 1.11 35.11 341 22.38589191957 23.627798772158 7809.6317206017 178891.92146104
68	398782 5850 235 189849 1.11 35.11 341 3 3 1023 3069
80	404632 13552 1040 189541 1.262751864202 35.062753672946 339 0.099999821368 0.10001296258 33.900001777883 3.3900003557453
79	418184 13544 976 189477 1.241824864202 35.041826672981 339 0.099999821369 0.100012872349 33.900001777918 3.3900003557499
78	431728 9175 1040 189541 1.262751864202 35.062753672946 339 3 3 1017 3051
77	440903 9169 976 189477 1.241824864202 35.041826672981 339 3 3 1017 3051
76	450072 484 5237 189281 2 35 34 0 0 0 0
75	450556 689 5237 189281 2 35 34 0.023625 0.02625 0.889875 0.023297203125
74	451245 484 5237 189281 2 35 34 3 3 102 306
117	451729 11354 237 189851 1.11 35.11 341 -1.1716028913062 1.5 57.126290157219 176.52165760242
116	463083 11519 237 189851 1.11 35.11 341 -1.0254351398814 1.4882967808134 55.929077773067 140.75571125531
115	474602 7555 237 189851 1.11 35.11 341 36.55 36.55 12463.55 455542.7525
114	482157 10935 237 189851 1.11 35.11 341 104.1085308075 1539.4912001069 278281.050232 285166878.28016
113	493092 10923 237 189851 1.11 35.11 341 41.0142135898 47.248129792662 14397.449047537 608445.99088195
111	504015 11565 237 189851 1.11 35.11 341 -0.52387274176867 4.806961379032 87.589550969475 260.32336553579
110	515580 10920 237 189851 1.11 35.11 341 22.485460799025 31.430044532918 7938.283035795 185389.67575306
112	526500 6191 237 189851 1.11 35.11 341 5 5 1705 8525
124	532691 13876 1242 189749 1.287391759265 35.087393429066 339 0.09999981543 0.100012969139 33.90000163894 3.3900003279569
123	546567 13870 988 189489 1.241825043215 35.041826806189 339 0.09999981966 0.100012870913 33.900001732113 3.3900003465889
122	560437 9503 1242 189749 1.287391759265 35.087393429066 339 5 5 1695 8475
121	569940 9496 988 189489 1.241825043215 35.041826806189 339 5 5 1695 8475
120	579436 518 5239 189283 2 35 34 0 0 0 0
119	579954 723 5239 189283 2 35 34 0.023625 0.02625 0.889875 0.023297203125
118	580677 518 5239 189283 2 35 34 5 5 170 850
139	581195 11489 238 189852 1.11 35.11 341 -1.0686450867322 1.5 56.44327868351 149.01508997706
138	592684 11552 238 189852 1.11 35.11 341 -0.93801447453359 1.4696359297389 53.385967328171 120.90014368083
137	604236 7555 238 189852 1.11 35.11 341 36.55 36.55 12463.55 455542.7525
136	611791 10924 238 189852 1.11 35.11 341 77.275198745728 1509.9870873581 269047.05419855 270274238.04681
135	622715 10925 238 189852 1.11 35.11 341 41.090937164547 46.97681875253 14370.649408037 606048.65300889
133	633640 11555 238 189852 1.11 35.11 341 -0.47890317818423 0.71728542729696 26.240348722253 30.767088176855
132	645195 10922 238 189852 1.11 35.11 341 22.526444214921 25.49868652807 7869.4600406687 181721.44090009
134	656117 6191 238 189852 1.11 35.11 341 6 6 2046 12276
146	662308 13884 1106 189601 1.266714132721 35.066715904176 339 0.099999819751 0.100012857894 33.900001740594 3.3900003482847
145	676192 13882 994 189495 1.241825132721 35.041826904539 339 0.099999819764 0.100012871113 33.900001740957 3.3900003483577
144	690074 9509 1106 189601 1.266714132721 35.066715904176 339 6 6 2034 12204
143	699583 9506 994 189495 1.241825132721 35.041826904539 339 6 6 2034 12204
142	709089 518 5240 189284 2 35 34 0 0 0 0
141	709607 723 5240 189284 2 35 34 0.023625 0.02625 0.889875 0.023297203125
140	710330 518 5240 189284 2 35 34 6 6 204 1224
161	710848 11549 239 189853 1.11 35.11 341 -0.97704027838025 1.4904459258332 53.861564818352 127.70144261054
160	722397 11566 239 189853 1.11 35.11 341 -0.86012660645451 1.4399321645975 48.925672236433 103.03102494336
159	733963 7555 239 189853 1.11 35.11 341 36.55 36.55 12463.55 455542.7525
158	741518 10931 239 189853 1.11 35.11 341 50.44186668396 1480.6922377947 259825.63883385 255915974.4252
157	752449 10932 239 189853 1.11 35.11 341 41.159143252858 46.51397998588 14345.875312787 603844.04964193
155	763381 11578 239 189853 1.11 35.11 341 -0.43882051147921 0.70196522067855 24.240235577108 26.177771900204
154	774959 10922 239 189853 1.11 35.11 341 22.562713560274 25.285592788014 7856.9198827955 181112.75350001
156	785881 6191 239 189853 1.11 35.11 341 7 7 2387 16709
168	792072 13881 1308 189803 1.289468938278 35.089470625125 339 0.099999815692 0.100012977393 33.900001655986 3.3900003313663
167	805953 13894 1000 189501 1.241825222228 35.041827002146 339 0.099999819932 0.100012871343 33.900001749057 3.3900003499777
166	819847 9517 1308 189803 1.289468938278 35.089470625125 339 7 7 2373 16611
165	829364 9514 1000 189501 1.241825222228 35.041827002146 339 7 7 2373 16611
164	838878 518 5241 189285 2 35 34 0 0 0 0
163	839396 723 5241 189285 2 35 34 0.023625 0.02625 0.889875 0.023297203125
162	840119 518 5241 189285 2 35 34 7 7 238 1666
88	840637 10623 236 189856 1.11 35.12 342 0 23.583061427025 7428.0928197704 166669.89460267
89	851260 11290 236 189856 1.11 35.12 342 -10.145518183918 0.49417748849739 -241.64340374435 1580.7463452585
90	862550 5868 236 189856 1.11 35.12 342 4 4 1368 5472
91	868418 10611 236 189856 1.11 35.12 342 40.926802766617 52.105091171694 14538.196207413 619549.82772122
92	879029 10610 236 189856 1.11 35.12 342 130.94186668396 1575.5391847791 289160.64529395 303254928.67856
93	889639 7236 236 189856 1.11 35.12 342 36.55 36.55 12500.1 456878.655
94	896875 11214 236 189856 1.11 35.12 342 -1.1260319006787 2.4999999999999 107.75177350312 331.31496055964
95	908089 10923 236 189856 1.11 35.12 342 -1.283151404475 22.586746188399 686.44753549874 13479.633718421
96	919012 484 5238 189282 2 35 34 4 4 136 544
97	919496 689 5238 189282 2 35 34 0.023625 0.02625 0.889875 0.023297203125
98	920185 484 5238 189282 2 35 34 0 0 0 0
99	920669 9167 982 189483 1.241824953708 35.041826688802 339 4 4 1356 5424
100	929836 9511 904 189399 1.24052741667 35.040529154712 339 4 4 1356 5424
101	939347 13878 982 189483 1.241824953708 35.041826688802 339 0.099999818126 0.100012869823 33.900001704233 3.3900003410129
102	953225 13884 904 189399 1.24052741667 35.040529154712 339 0.099999819257 0.100012974015 33.900001707181 3.3900003416052
