file 971914 1501697688                                          
version 2
run SinusoidalAccInjectionAttack-40-20170802-20:14:30-78852
attr CACCSpacing 5
attr attackAcc -30
attr attackPos 7
attr attackSpeed 150
attr attackStart 30
attr attacker 4
attr beaconInterval 0.1
attr configname SinusoidalAccInjectionAttack
attr controller 1
attr datetime 20170802-20:14:30
attr experiment SinusoidalAccInjectionAttack
attr fakeAcc "(4 == 4)"
attr fakePos "(4 == 2)"
attr fakeSpeed "(4 == 3)"
attr inifile omnetpp_40.ini
attr iterationvars "$attacker=4, $attackSpeed=150, $attackPos=7, $attackAcc=-30, $leaderSpeed=150, $controller=1, $CACCSpacing=5, $sController=\"CACC\", $attackStart=30, $0=5, $1=0, $nCars=8, $platoonSize=8, $nLanes=1, $beaconInterval=0.1, $priority=2, $packetSize=200, $ploegH=0.5, $leaderHeadway=1.2, $fakeSpeed=(4 == 3), $fakeAcc=(4 == 4), $fakePos=(4 == 2)"
attr iterationvarsf attacker=4,attackSpeed=150,attackPos=7,attackAcc=-30,leaderSpeed=150,controller=1,CACCSpacing=5,sController=CACC,attackStart=30,5,0,nCars=8,platoonSize=8,nLanes=1,beaconInterval=0.1,priority=2,packetSize=200,ploegH=0.5,leaderHeadway=1.2,fakeSpeed=(4_==_3),fakeAcc=(4_==_4),fakePos=(4_==_2)-
attr leaderHeadway 1.2
attr leaderSpeed 150
attr measurement "$attacker=4, $attackSpeed=150, $attackPos=7, $attackAcc=-30, $leaderSpeed=150, $controller=1, $CACCSpacing=5, $sController=\"CACC\", $attackStart=30, $0=5, $1=0, $nCars=8, $platoonSize=8, $nLanes=1, $beaconInterval=0.1, $priority=2, $packetSize=200, $ploegH=0.5, $leaderHeadway=1.2, $fakeSpeed=(4 == 3), $fakeAcc=(4 == 4), $fakePos=(4 == 2)"
attr nCars 8
attr nLanes 1
attr network scenario
attr packetSize 200
attr platoonSize 8
attr ploegH 0.5
attr priority 2
attr processid 78852
attr repetition 0
attr replication #0
attr resultdir results
attr runnumber 40
attr sController "\"CACC\""
attr seedset 0
param **.coreDebug false
param **.debug false
param **.headway 0.1s
param **.numberOfCars 8
param **.numberOfCarsPerPlatoon 8
param **.numberOfLanes 1
param **.numericController 1
param **.traffic.nCars 8
param **.traffic.nLanes 1
param **.traffic.platoonInsertDistance 5m
param **.traffic.platoonInsertHeadway 0s
param **.traffic.platoonInsertSpeed 150kmph
param **.traffic.platoonInsertTime "1 s"
param **.traffic.platoonLeaderHeadway 1.2s
param **.traffic.platoonSize 8
param **.traffic.platooningVType "\"vtypeauto\""
param **.traffic_type "\"PlatoonsTrafficManager\""
param *.**.nic.mac1609_4.bitrate 6Mbps
param *.**.nic.mac1609_4.txPower 100mW
param *.**.nic.mac1609_4.useServiceChannel false
param *.**.nic.phy80211p.analogueModels "xmldoc(\"config.xml\")"
param *.**.nic.phy80211p.decider "xmldoc(\"config.xml\")"
param *.**.nic.phy80211p.maxTXPower 100mW
param *.**.nic.phy80211p.sensitivity -94dBm
param *.**.nic.phy80211p.thermalNoise -95dBm
param *.**.nic.phy80211p.usePropagationDelay true
param *.**.nic.phy80211p.useThermalNoise true
param *.annotations.draw false
param *.connectionManager.alpha 2.0
param *.connectionManager.carrierFrequency "5.890e9 Hz"
param *.connectionManager.pMax 100mW
param *.connectionManager.sat -94dBm
param *.connectionManager.sendDirect true
param *.manager.autoShutdown true
param *.manager.commandLine "\"sumo --remote-port $port --seed $seed --configuration-file $configFile\""
param *.manager.configFile "\"./sumocfg/freeway.sumo.cfg\""
param *.manager.host "\"localhost\""
param *.manager.margin 25
param *.manager.moduleDisplayString "\"\""
param *.manager.moduleName "\"node\""
param *.manager.moduleType "\"Car\""
param *.manager.updateInterval 0.01s
param *.node[*].appl.attackStart 30s
param *.node[*].appl.attackerType 4
param *.node[*].appl.simulationDuration "60 s"
param *.node[*].appl_type "\"SimplePlatooningApp\""
param *.node[*].helper.nCars 8
param *.node[*].helper.nLanes 1
param *.node[*].helper.platoonSize 8
param *.node[*].helper_type "\"PositionHelper\""
param *.node[*].mobility.x 0
param *.node[*].mobility.y 0
param *.node[*].mobility.z 1.895
param *.node[*].prot.attackStart 30s
param *.node[*].prot.attackerType 4
param *.node[*].prot.attackingNode 3
param *.node[*].prot.beaconingInterval 0.1s
param *.node[*].prot.fakeAcc "(4 == 4)"
param *.node[*].prot.fakePos "(4 == 2)"
param *.node[*].prot.fakeSpeed "(4 == 3)"
param *.node[*].prot.maliciousAcc "-30 mpss"
param *.node[*].prot.maliciousSpeed 150kmph
param *.node[*].prot.packetSize 200
param *.node[*].prot.priority 2
param *.node[*].prot.shiftX "7 m"
param *.node[*].prot.useControllerAcceleration true
param *.node[*].protocol_type "\"SimplePlatooningBeaconing\""
param *.node[*].scenario.accHeadway 0.1s
param *.node[*].scenario.caccC1 0.5
param *.node[*].scenario.caccOmegaN "0.2 Hz"
param *.node[*].scenario.caccSpacing 5m
param *.node[*].scenario.caccXi 1
param *.node[*].scenario.controller "\"CACC\""
param *.node[*].scenario.engineTau "0.5 s"
param *.node[*].scenario.leaderHeadway 1.2s
param *.node[*].scenario.leaderOscillationFrequency "0.2 Hz"
param *.node[*].scenario.leaderSpeed 150kmph
param *.node[*].scenario.oscillationAmplitude "10 kmph"
param *.node[*].scenario.ploegH 0.5s
param *.node[*].scenario.ploegKd 0.7
param *.node[*].scenario.ploegKp 0.2
param *.node[*].scenario.startOscillating "5 s"
param *.node[*].scenario.useRealisticEngine false
param *.node[*].scenario_type "\"SinusoidalScenario\""
param *.node[*].unicast.packetLossRate 0
param *.obstacles.debug false
param *.playgroundSizeX 65000m
param *.playgroundSizeY 25000m
param *.playgroundSizeZ 50m
param *.world.use2D false
param *.world.useTorus false

vector 0  scenario.node[0].appl  distance  ETV
vector 1  scenario.node[0].appl  relativeSpeed  ETV
vector 2  scenario.node[0].appl  nodeId  ETV
vector 6  scenario.node[0].appl  acceleration  ETV
vector 7  scenario.node[0].appl  controllerAcceleration  ETV
vector 3  scenario.node[0].appl  speed  ETV
vector 4  scenario.node[0].appl  posx  ETV
vector 5  scenario.node[0].appl  posy  ETV
vector 22  scenario.node[1].appl  distance  ETV
vector 23  scenario.node[1].appl  relativeSpeed  ETV
vector 24  scenario.node[1].appl  nodeId  ETV
vector 28  scenario.node[1].appl  acceleration  ETV
vector 29  scenario.node[1].appl  controllerAcceleration  ETV
vector 25  scenario.node[1].appl  speed  ETV
vector 26  scenario.node[1].appl  posx  ETV
vector 27  scenario.node[1].appl  posy  ETV
vector 44  scenario.node[2].appl  distance  ETV
vector 45  scenario.node[2].appl  relativeSpeed  ETV
vector 46  scenario.node[2].appl  nodeId  ETV
vector 50  scenario.node[2].appl  acceleration  ETV
vector 51  scenario.node[2].appl  controllerAcceleration  ETV
vector 47  scenario.node[2].appl  speed  ETV
vector 48  scenario.node[2].appl  posx  ETV
vector 49  scenario.node[2].appl  posy  ETV
vector 66  scenario.node[3].appl  distance  ETV
vector 67  scenario.node[3].appl  relativeSpeed  ETV
vector 68  scenario.node[3].appl  nodeId  ETV
vector 72  scenario.node[3].appl  acceleration  ETV
vector 73  scenario.node[3].appl  controllerAcceleration  ETV
vector 69  scenario.node[3].appl  speed  ETV
vector 70  scenario.node[3].appl  posx  ETV
vector 71  scenario.node[3].appl  posy  ETV
vector 88  scenario.node[4].appl  distance  ETV
vector 89  scenario.node[4].appl  relativeSpeed  ETV
vector 90  scenario.node[4].appl  nodeId  ETV
vector 94  scenario.node[4].appl  acceleration  ETV
vector 95  scenario.node[4].appl  controllerAcceleration  ETV
vector 91  scenario.node[4].appl  speed  ETV
vector 92  scenario.node[4].appl  posx  ETV
vector 93  scenario.node[4].appl  posy  ETV
vector 110  scenario.node[5].appl  distance  ETV
vector 111  scenario.node[5].appl  relativeSpeed  ETV
vector 112  scenario.node[5].appl  nodeId  ETV
vector 116  scenario.node[5].appl  acceleration  ETV
vector 117  scenario.node[5].appl  controllerAcceleration  ETV
vector 113  scenario.node[5].appl  speed  ETV
vector 114  scenario.node[5].appl  posx  ETV
vector 115  scenario.node[5].appl  posy  ETV
vector 132  scenario.node[6].appl  distance  ETV
vector 133  scenario.node[6].appl  relativeSpeed  ETV
vector 134  scenario.node[6].appl  nodeId  ETV
vector 138  scenario.node[6].appl  acceleration  ETV
vector 139  scenario.node[6].appl  controllerAcceleration  ETV
vector 135  scenario.node[6].appl  speed  ETV
vector 136  scenario.node[6].appl  posx  ETV
vector 137  scenario.node[6].appl  posy  ETV
vector 154  scenario.node[7].appl  distance  ETV
vector 155  scenario.node[7].appl  relativeSpeed  ETV
vector 156  scenario.node[7].appl  nodeId  ETV
vector 160  scenario.node[7].appl  acceleration  ETV
vector 161  scenario.node[7].appl  controllerAcceleration  ETV
vector 157  scenario.node[7].appl  speed  ETV
vector 158  scenario.node[7].appl  posx  ETV
vector 159  scenario.node[7].appl  posy  ETV
vector 80  scenario.node[3].prot  frontDelay  ETV
vector 78  scenario.node[3].prot  frontDelayId  ETV
vector 58  scenario.node[2].prot  frontDelay  ETV
vector 56  scenario.node[2].prot  frontDelayId  ETV
vector 168  scenario.node[7].prot  frontDelay  ETV
vector 166  scenario.node[7].prot  frontDelayId  ETV
vector 35  scenario.node[1].prot  leaderDelay  ETV
vector 33  scenario.node[1].prot  leaderDelayId  ETV
vector 36  scenario.node[1].prot  frontDelay  ETV
vector 34  scenario.node[1].prot  frontDelayId  ETV
vector 57  scenario.node[2].prot  leaderDelay  ETV
vector 55  scenario.node[2].prot  leaderDelayId  ETV
vector 79  scenario.node[3].prot  leaderDelay  ETV
vector 77  scenario.node[3].prot  leaderDelayId  ETV
vector 101  scenario.node[4].prot  leaderDelay  ETV
vector 99  scenario.node[4].prot  leaderDelayId  ETV
vector 123  scenario.node[5].prot  leaderDelay  ETV
vector 121  scenario.node[5].prot  leaderDelayId  ETV
vector 145  scenario.node[6].prot  leaderDelay  ETV
vector 143  scenario.node[6].prot  leaderDelayId  ETV
vector 167  scenario.node[7].prot  leaderDelay  ETV
vector 165  scenario.node[7].prot  leaderDelayId  ETV
vector 124  scenario.node[5].prot  frontDelay  ETV
vector 122  scenario.node[5].prot  frontDelayId  ETV
vector 102  scenario.node[4].prot  frontDelay  ETV
vector 100  scenario.node[4].prot  frontDelayId  ETV
vector 146  scenario.node[6].prot  frontDelay  ETV
vector 144  scenario.node[6].prot  frontDelayId  ETV
vector 8  scenario.node[0].prot  nodeId  ETV
vector 9  scenario.node[0].prot  busyTime  ETV
vector 10  scenario.node[0].prot  collisions  ETV
vector 30  scenario.node[1].prot  nodeId  ETV
vector 31  scenario.node[1].prot  busyTime  ETV
vector 32  scenario.node[1].prot  collisions  ETV
vector 52  scenario.node[2].prot  nodeId  ETV
vector 53  scenario.node[2].prot  busyTime  ETV
vector 54  scenario.node[2].prot  collisions  ETV
vector 74  scenario.node[3].prot  nodeId  ETV
vector 75  scenario.node[3].prot  busyTime  ETV
vector 76  scenario.node[3].prot  collisions  ETV
vector 96  scenario.node[4].prot  nodeId  ETV
vector 97  scenario.node[4].prot  busyTime  ETV
vector 98  scenario.node[4].prot  collisions  ETV
vector 118  scenario.node[5].prot  nodeId  ETV
vector 119  scenario.node[5].prot  busyTime  ETV
vector 120  scenario.node[5].prot  collisions  ETV
vector 140  scenario.node[6].prot  nodeId  ETV
vector 141  scenario.node[6].prot  busyTime  ETV
vector 142  scenario.node[6].prot  collisions  ETV
vector 162  scenario.node[7].prot  nodeId  ETV
vector 163  scenario.node[7].prot  busyTime  ETV
vector 164  scenario.node[7].prot  collisions  ETV
7	11244 8164 232 190403 1.11 35.21 342 -1.5 1.5 -10.177980802834 543.858830972
6	19408 10747 232 190403 1.11 35.21 342 -1.4722746794739 1.4513407705138 -12.683111250271 366.49425010585
5	30155 6894 232 190403 1.11 35.21 342 36.55 36.55 12500.1 456878.655
4	37049 10266 232 190403 1.11 35.21 342 100.60653190573 1525.3731661086 278473.57360091 284933435.50273
3	47315 10263 232 190403 1.11 35.21 342 40.376864578797 43.631381416411 14288.886958653 597249.3512871
1	57578 5526 232 190403 1.11 35.21 342 0 0 0 0
0	63104 5868 232 190403 1.11 35.21 342 -1 -1 -342 342
2	68972 5526 232 190403 1.11 35.21 342 0 0 0 0
10	74498 483 5102 189146 2 35 34 0 0 0 0
9	74981 654 5102 189146 2 35 34 0.022969 0.02625 0.889219 0.023266637461
8	75635 449 5102 189146 2 35 34 0 0 0 0
29	76084 11009 233 190404 1.11 35.21 342 -1.5129716526987 1.5129648429844 -11.903942535834 544.92036753755
28	87093 11068 233 190404 1.11 35.21 342 -1.4840815554159 1.4595456978697 -12.879908298897 368.84270907463
27	98161 7236 233 190404 1.11 35.21 342 36.55 36.55 12500.1 456878.655
26	105397 10604 233 190404 1.11 35.21 342 91.606531906128 1516.4522708367 275394.68387666 279948947.67694
25	116001 10617 233 190404 1.11 35.21 342 40.372686851808 43.637493193157 14289.671852279 597315.9399888
23	126618 11602 233 190404 1.11 35.21 342 -0.074693808018758 0.072861107982831 -0.65806251348421 0.96781423150377
22	138220 10615 233 190404 1.11 35.21 342 4.9147225588307 5.1113153583133 1710.9054221205 8560.0043522226
24	148835 5868 233 190404 1.11 35.21 342 1 1 342 342
36	154703 13628 1032 190647 1.254911230853 35.254828999836 341 0.099907839697 0.100089841893 34.099929609565 3.4099864821936
35	168331 13628 1032 190647 1.254911230853 35.254828999836 341 0.099907839697 0.100089841893 34.099929609565 3.4099864821936
34	181959 9232 1032 190647 1.254911230853 35.254828999836 341 1 1 341 341
33	191191 9232 1032 190647 1.254911230853 35.254828999836 341 1 1 341 341
32	200423 483 5103 189147 2 35 34 0 0 0 0
31	200906 688 5103 189147 2 35 34 0.022969 0.02625 0.889219 0.023266637461
30	201594 483 5103 189147 2 35 34 1 1 34 34
51	202077 11007 234 190405 1.11 35.21 342 -1.4952754260415 1.4970992039428 -12.479334043608 529.55306744751
50	213084 11075 234 190405 1.11 35.21 342 -1.4761121309526 1.4494360551055 -12.869389454521 365.17128836562
49	224159 7236 234 190405 1.11 35.21 342 36.55 36.55 12500.1 456878.655
48	231395 10633 234 190405 1.11 35.21 342 82.606531906128 1507.4976078949 272316.1101302 275020102.50496
47	242028 10613 234 190405 1.11 35.21 342 40.378496160627 43.632231713036 14290.126486882 597350.86882459
45	252641 11603 234 190405 1.11 35.21 342 -0.042592452935487 0.039108608161158 -0.32583551995228 0.2309410227411
44	264244 10617 234 190405 1.11 35.21 342 4.9490553254585 5.0735112746402 1710.5828391547 8556.155381848
46	274861 5868 234 190405 1.11 35.21 342 2 2 684 1368
58	280729 13621 900 190515 1.229657900624 35.229653678219 341 0.099998813386 0.100011845319 34.099994618177 3.4099989282597
57	294350 13620 1038 190653 1.254911260874 35.254829029705 341 0.099907839705 0.100089841908 34.099929609413 3.4099864821632
56	307970 9215 900 190515 1.229657900624 35.229653678219 341 2 2 682 1364
55	317185 9219 1038 190653 1.254911260874 35.254829029705 341 2 2 682 1364
54	326404 483 5104 189148 2 35 34 0 0 0 0
53	326887 688 5104 189148 2 35 34 0.022969 0.02625 0.889219 0.023266637461
52	327575 483 5104 189148 2 35 34 2 2 68 136
73	328058 11002 235 190406 1.11 35.21 342 -1.4890877726435 1.4891492823534 -12.656493606866 514.84064098865
72	339060 11087 235 190406 1.11 35.21 342 -1.4634887767407 1.4362599133236 -12.764705438266 358.56632779135
71	350147 7236 235 190406 1.11 35.21 342 36.55 36.55 12500.1 456878.655
70	357383 10611 235 190406 1.11 35.21 342 73.606531906128 1498.5215127339 269237.44158188 270146455.11652
69	367994 10619 235 190406 1.11 35.21 342 40.391470543542 43.618937130652 14290.369636617 597366.5789204
67	378613 11704 235 190406 1.11 35.21 342 -0.022067715374121 0.020412762615379 -0.11445584055883 0.043411537159809
66	390317 10571 235 190406 1.11 35.21 342 4.9704446985783 5.049361123868 1710.6734113139 8556.8519407222
68	400888 5868 235 190406 1.11 35.21 342 3 3 1026 3078
80	406756 13638 832 190447 1.213904870603 35.213900648421 341 0.099998813387 0.10001184451 34.0999946184 3.4099989283041
79	420394 13628 1044 190659 1.254911290894 35.254829059644 341 0.099907839706 0.100089841918 34.099929609332 3.409986482147
78	434022 9223 832 190447 1.213904870603 35.213900648421 341 3 3 1023 3069
77	443245 9217 1044 190659 1.254911290894 35.254829059644 341 3 3 1023 3069
76	452462 483 5105 189149 2 35 34 0 0 0 0
75	452945 688 5105 189149 2 35 34 0.022968 0.02625 0.889218 0.023266591524
74	453633 483 5105 189149 2 35 34 3 3 102 306
117	454116 11365 237 190408 1.11 35.21 342 -1.4896672669038 1.8821992756124 15.939316429712 480.48717021713
116	465481 11431 237 190408 1.11 35.21 342 -1.4475619173517 1.4387948461803 11.148720657869 322.0091313476
115	476912 7578 237 190408 1.11 35.21 342 36.55 36.55 12500.1 456878.655
114	484490 10949 237 190408 1.11 35.21 342 55.606529998779 1482.8372421539 263089.69629352 260593556.17799
113	495439 10962 237 190408 1.11 35.21 342 40.401541486155 43.597502842109 14314.356727267 599372.39184884
111	506401 11877 237 190408 1.11 35.21 342 -0.20117115048567 1.7744353817168 24.303280905936 36.994416592727
110	518278 10947 237 190408 1.11 35.21 342 4.7239992638454 7.3611596876103 1725.3728226227 8734.1558013993
112	529225 6210 237 190408 1.11 35.21 342 5 5 1710 8550
124	535435 13966 1172 190787 1.26574753106 35.265756320498 341 0.099998814021 0.100011845868 34.10000763002 3.4100015307666
123	549401 13963 1056 190671 1.254911350936 35.254829111644 341 0.099907839698 0.100089841915 34.09992960129 3.4099864805386
122	563364 9572 1172 190787 1.26574753106 35.265756320498 341 5 5 1705 8525
121	572936 9568 1056 190671 1.254911350936 35.254829111644 341 5 5 1705 8525
120	582504 517 5107 189151 2 35 34 0 0 0 0
119	583021 722 5107 189151 2 35 34 0.022968 0.02625 0.889218 0.023266591524
118	583743 517 5107 189151 2 35 34 5 5 170 850
139	584260 11350 238 190409 1.11 35.21 342 -1.4807582967018 1.8215353049971 3.4557148678264 480.248459527
138	595610 11412 238 190409 1.11 35.21 342 -1.4503739209808 1.4264948361422 0.53137173515694 331.44922371095
137	607022 7578 238 190409 1.11 35.21 342 36.55 36.55 12500.1 456878.655
136	614600 10952 238 190409 1.11 35.21 342 46.606529998779 1472.6540939548 260004.81852946 255866327.45621
135	625552 10956 238 190409 1.11 35.21 342 40.397152270585 43.602655916224 14302.156417011 598339.1976783
133	636508 11931 238 190409 1.11 35.21 342 -0.10823861889607 1.0398404456708 12.088823049464 10.317144021233
132	648439 10952 238 190409 1.11 35.21 342 4.8521076548102 6.1621883023709 1716.63375786 8622.9379811796
134	659391 6210 238 190409 1.11 35.21 342 6 6 2052 12312
146	665601 13924 1312 190365 1.305157621123 35.205154570075 340 0.099998814512 0.100011845769 33.999995789534 3.3999991625298
145	679525 13978 1062 190677 1.254911380957 35.254829145752 341 0.099907839699 0.100089841913 34.099929605377 3.409986481356
144	693503 9534 1312 190365 1.305157621123 35.205154570075 340 6 6 2040 12240
143	703037 9577 1062 190677 1.254911380957 35.254829145752 341 6 6 2046 12276
142	712614 517 5108 189152 2 35 34 0 0 0 0
141	713131 722 5108 189152 2 35 34 0.022969 0.02625 0.889219 0.023266637461
140	713853 517 5108 189152 2 35 34 6 6 204 1224
161	714370 11346 239 190410 1.11 35.21 342 -1.4938774164296 1.734237992856 -3.267312947062 506.80168335716
160	725716 11420 239 190410 1.11 35.21 342 -1.4564665718794 1.431222805509 -5.5320923288548 341.47083548356
159	737136 7578 239 190410 1.11 35.21 342 36.55 36.55 12500.1 456878.655
158	744714 10953 239 190410 1.11 35.21 342 37.606529998779 1463.074642255 256923.50249627 251205438.65381
157	755667 10961 239 190410 1.11 35.21 342 40.395211973337 43.608080120472 14296.150729806 597839.54029291
155	766628 12120 239 190410 1.11 35.21 342 -0.044581839674294 0.59206308045493 6.0003734876086 2.7556029239641
154	778748 10950 239 190410 1.11 35.21 342 4.9351111627318 5.5674959432977 1713.1959194451 8583.4321018244
156	789698 6210 239 190410 1.11 35.21 342 7 7 2394 16758
168	795908 13961 975 190584 1.254433050728 35.254428826435 341 0.099998813152 0.100011844947 34.099994616289 3.409998927882
167	809869 13971 1068 190683 1.254911410977 35.254829177787 341 0.099907839704 0.10008984192 34.099929607392 3.409986481759
166	823840 9573 975 190584 1.254433050728 35.254428826435 341 7 7 2387 16709
165	833413 9568 1068 190683 1.254911410977 35.254829177787 341 7 7 2387 16709
164	842981 517 5109 189153 2 35 34 0 0 0 0
163	843498 722 5109 189153 2 35 34 0.022969 0.02625 0.889219 0.023266637461
162	844220 517 5109 189153 2 35 34 7 7 238 1666
88	844737 10627 236 190821 1.11 35.28 343 0 5.5742379776766 1686.8522075468 8424.0591255421
89	855364 11698 236 190821 1.11 35.28 343 -4.2071463643999 0.35251538174741 -52.65948794104 176.16889689043
90	867062 5886 236 190821 1.11 35.28 343 4 4 1372 5488
91	872948 10642 236 190821 1.11 35.28 343 40.377564414723 44.590456867241 14383.540082115 603507.28910084
92	883590 10648 236 190821 1.11 35.28 343 64.606531906128 1497.3540561638 267680.91503027 267645111.56386
93	894238 7258 236 190821 1.11 35.28 343 36.55 36.55 12536.65 458214.5575
94	901496 11089 236 190821 1.11 35.28 343 -1.4527428079603 1.5763255280959 29.94246118319 338.3532874752
95	912585 10993 236 190821 1.11 35.28 343 -1.4821537209686 1.783227920106 34.230597413784 472.52993151283
96	923578 483 5106 189150 2 35 34 4 4 136 544
97	924061 688 5106 189150 2 35 34 0.022969 0.02625 0.889219 0.023266637461
98	924749 483 5106 189150 2 35 34 0 0 0 0
99	925232 9231 1050 190665 1.254911320915 35.25482907339 341 4 4 1364 5456
100	934463 9542 1246 190299 1.303561561081 35.203558498187 340 4 4 1360 5440
101	944005 13975 1050 190665 1.254911320915 35.25482907339 341 0.099907839704 0.100089841921 34.099929593057 3.4099864788921
102	957980 13934 1246 190299 1.303561561081 35.203558498187 340 0.099998813574 0.100011845068 33.999995777688 3.3999991601603
