file 1680701 1512143507                                         
version 2
run SinusoidalAccInjectionAttack-114-20171201-16:51:16-82963
attr CACCSpacing 20
attr attackAcc -10
attr attackPos 7
attr attackSpeed 150
attr attackStart 30
attr attacker 4
attr beaconInterval 0.1
attr configname SinusoidalAccInjectionAttack
attr controller 2
attr datetime 20171201-16:51:16
attr experiment SinusoidalAccInjectionAttack
attr fakeAcc "(4 == 4)"
attr fakePos "(4 == 2)"
attr fakeSpeed "(4 == 3)"
attr inifile omnetpp_114.ini
attr iterationvars "$attacker=4, $attackSpeed=150, $attackPos=7, $attackAcc=-10, $leaderSpeed=150, $controller=2, $CACCSpacing=20, $sController=\"PLOEG\", $attackStart=30, $0=2, $1=0.5, $nCars=8, $platoonSize=8, $nLanes=1, $beaconInterval=0.1, $priority=2, $packetSize=200, $ploegH=0.5, $leaderHeadway=1.2, $fakeSpeed=(4 == 3), $fakeAcc=(4 == 4), $fakePos=(4 == 2)"
attr iterationvarsf attacker=4,attackSpeed=150,attackPos=7,attackAcc=-10,leaderSpeed=150,controller=2,CACCSpacing=20,sController=PLOEG,attackStart=30,2,0.5,nCars=8,platoonSize=8,nLanes=1,beaconInterval=0.1,priority=2,packetSize=200,ploegH=0.5,leaderHeadway=1.2,fakeSpeed=(4_==_3),fakeAcc=(4_==_4),fakePos=(4_==_2)-
attr leaderHeadway 1.2
attr leaderSpeed 150
attr measurement "$attacker=4, $attackSpeed=150, $attackPos=7, $attackAcc=-10, $leaderSpeed=150, $controller=2, $CACCSpacing=20, $sController=\"PLOEG\", $attackStart=30, $0=2, $1=0.5, $nCars=8, $platoonSize=8, $nLanes=1, $beaconInterval=0.1, $priority=2, $packetSize=200, $ploegH=0.5, $leaderHeadway=1.2, $fakeSpeed=(4 == 3), $fakeAcc=(4 == 4), $fakePos=(4 == 2)"
attr nCars 8
attr nLanes 1
attr network scenario
attr packetSize 200
attr platoonSize 8
attr ploegH 0.5
attr priority 2
attr processid 82963
attr repetition 4
attr replication #4
attr resultdir results
attr runnumber 114
attr sController "\"PLOEG\""
attr seedset 4
param **.coreDebug false
param **.debug false
param **.headway 0.1s
param **.numberOfCars 8
param **.numberOfCarsPerPlatoon 8
param **.numberOfLanes 1
param **.numericController 2
param **.traffic.nCars 8
param **.traffic.nLanes 1
param **.traffic.platoonInsertDistance 2m
param **.traffic.platoonInsertHeadway 0.5s
param **.traffic.platoonInsertSpeed 150kmph
param **.traffic.platoonInsertTime "1 s"
param **.traffic.platoonLeaderHeadway 1.2s
param **.traffic.platoonSize 8
param **.traffic.platooningVType "\"vtypeauto\""
param **.traffic_type "\"PlatoonsTrafficManager\""
param *.**.nic.mac1609_4.bitrate 6Mbps
param *.**.nic.mac1609_4.txPower 100mW
param *.**.nic.mac1609_4.useServiceChannel false
param *.**.nic.phy80211p.analogueModels "xmldoc(\"config.xml\")"
param *.**.nic.phy80211p.decider "xmldoc(\"config.xml\")"
param *.**.nic.phy80211p.maxTXPower 100mW
param *.**.nic.phy80211p.sensitivity -94dBm
param *.**.nic.phy80211p.thermalNoise -95dBm
param *.**.nic.phy80211p.usePropagationDelay true
param *.**.nic.phy80211p.useThermalNoise true
param *.annotations.draw false
param *.connectionManager.alpha 2.0
param *.connectionManager.carrierFrequency "5.890e9 Hz"
param *.connectionManager.pMax 100mW
param *.connectionManager.sat -94dBm
param *.connectionManager.sendDirect true
param *.manager.autoShutdown true
param *.manager.commandLine "\"sumo --remote-port $port --seed $seed --configuration-file $configFile\""
param *.manager.configFile "\"./sumocfg/freeway.sumo.cfg\""
param *.manager.host "\"localhost\""
param *.manager.margin 25
param *.manager.moduleDisplayString "\"\""
param *.manager.moduleName "\"node\""
param *.manager.moduleType "\"Car\""
param *.manager.updateInterval 0.01s
param *.node[*].appl.attackStart 30s
param *.node[*].appl.attackerType 4
param *.node[*].appl.simulationDuration "60 s"
param *.node[*].appl_type "\"SimplePlatooningApp\""
param *.node[*].helper.nCars 8
param *.node[*].helper.nLanes 1
param *.node[*].helper.platoonSize 8
param *.node[*].helper_type "\"PositionHelper\""
param *.node[*].mobility.x 0
param *.node[*].mobility.y 0
param *.node[*].mobility.z 1.895
param *.node[*].prot.attackStart 30s
param *.node[*].prot.attackerType 4
param *.node[*].prot.attackingNode 3
param *.node[*].prot.beaconingInterval 0.1s
param *.node[*].prot.fakeAcc "(4 == 4)"
param *.node[*].prot.fakePos "(4 == 2)"
param *.node[*].prot.fakeSpeed "(4 == 3)"
param *.node[*].prot.maliciousAcc "-10 mpss"
param *.node[*].prot.maliciousSpeed 150kmph
param *.node[*].prot.packetSize 200
param *.node[*].prot.priority 2
param *.node[*].prot.shiftX "7 m"
param *.node[*].prot.useControllerAcceleration true
param *.node[*].protocol_type "\"SimplePlatooningBeaconing\""
param *.node[*].scenario.accHeadway 0.1s
param *.node[*].scenario.caccC1 0.5
param *.node[*].scenario.caccOmegaN "0.2 Hz"
param *.node[*].scenario.caccSpacing 20m
param *.node[*].scenario.caccXi 1
param *.node[*].scenario.controller "\"PLOEG\""
param *.node[*].scenario.engineTau "0.5 s"
param *.node[*].scenario.leaderHeadway 1.2s
param *.node[*].scenario.leaderSpeed 150kmph
param *.node[*].scenario.ploegH 0.5s
param *.node[*].scenario.ploegKd 0.7
param *.node[*].scenario.ploegKp 0.2
param *.node[*].scenario.useRealisticEngine false
param *.node[*].scenario_type "\"SinusoidalScenario\""
param *.node[*].unicast.packetLossRate 0
param *.obstacles.debug false
param *.playgroundSizeX 65000m
param *.playgroundSizeY 25000m
param *.playgroundSizeZ 50m
param *.world.use2D false
param *.world.useTorus false

vector 0  scenario.node[0].appl  distance  ETV
vector 1  scenario.node[0].appl  relativeSpeed  ETV
vector 2  scenario.node[0].appl  nodeId  ETV
vector 6  scenario.node[0].appl  acceleration  ETV
vector 7  scenario.node[0].appl  controllerAcceleration  ETV
vector 3  scenario.node[0].appl  speed  ETV
vector 4  scenario.node[0].appl  posx  ETV
vector 5  scenario.node[0].appl  posy  ETV
vector 22  scenario.node[1].appl  distance  ETV
vector 23  scenario.node[1].appl  relativeSpeed  ETV
vector 24  scenario.node[1].appl  nodeId  ETV
vector 28  scenario.node[1].appl  acceleration  ETV
vector 29  scenario.node[1].appl  controllerAcceleration  ETV
vector 25  scenario.node[1].appl  speed  ETV
vector 26  scenario.node[1].appl  posx  ETV
vector 27  scenario.node[1].appl  posy  ETV
vector 44  scenario.node[2].appl  distance  ETV
vector 45  scenario.node[2].appl  relativeSpeed  ETV
vector 46  scenario.node[2].appl  nodeId  ETV
vector 50  scenario.node[2].appl  acceleration  ETV
vector 51  scenario.node[2].appl  controllerAcceleration  ETV
vector 47  scenario.node[2].appl  speed  ETV
vector 48  scenario.node[2].appl  posx  ETV
vector 49  scenario.node[2].appl  posy  ETV
vector 66  scenario.node[3].appl  distance  ETV
vector 67  scenario.node[3].appl  relativeSpeed  ETV
vector 68  scenario.node[3].appl  nodeId  ETV
vector 72  scenario.node[3].appl  acceleration  ETV
vector 73  scenario.node[3].appl  controllerAcceleration  ETV
vector 69  scenario.node[3].appl  speed  ETV
vector 70  scenario.node[3].appl  posx  ETV
vector 71  scenario.node[3].appl  posy  ETV
vector 88  scenario.node[4].appl  distance  ETV
vector 89  scenario.node[4].appl  relativeSpeed  ETV
vector 90  scenario.node[4].appl  nodeId  ETV
vector 94  scenario.node[4].appl  acceleration  ETV
vector 95  scenario.node[4].appl  controllerAcceleration  ETV
vector 91  scenario.node[4].appl  speed  ETV
vector 92  scenario.node[4].appl  posx  ETV
vector 93  scenario.node[4].appl  posy  ETV
vector 110  scenario.node[5].appl  distance  ETV
vector 111  scenario.node[5].appl  relativeSpeed  ETV
vector 112  scenario.node[5].appl  nodeId  ETV
vector 116  scenario.node[5].appl  acceleration  ETV
vector 117  scenario.node[5].appl  controllerAcceleration  ETV
vector 113  scenario.node[5].appl  speed  ETV
vector 114  scenario.node[5].appl  posx  ETV
vector 115  scenario.node[5].appl  posy  ETV
vector 132  scenario.node[6].appl  distance  ETV
vector 133  scenario.node[6].appl  relativeSpeed  ETV
vector 134  scenario.node[6].appl  nodeId  ETV
vector 138  scenario.node[6].appl  acceleration  ETV
vector 139  scenario.node[6].appl  controllerAcceleration  ETV
vector 135  scenario.node[6].appl  speed  ETV
vector 136  scenario.node[6].appl  posx  ETV
vector 137  scenario.node[6].appl  posy  ETV
vector 154  scenario.node[7].appl  distance  ETV
vector 155  scenario.node[7].appl  relativeSpeed  ETV
vector 156  scenario.node[7].appl  nodeId  ETV
vector 160  scenario.node[7].appl  acceleration  ETV
vector 161  scenario.node[7].appl  controllerAcceleration  ETV
vector 157  scenario.node[7].appl  speed  ETV
vector 158  scenario.node[7].appl  posx  ETV
vector 159  scenario.node[7].appl  posy  ETV
vector 102  scenario.node[4].prot  frontDelay  ETV
vector 100  scenario.node[4].prot  frontDelayId  ETV
vector 35  scenario.node[1].prot  leaderDelay  ETV
vector 33  scenario.node[1].prot  leaderDelayId  ETV
vector 36  scenario.node[1].prot  frontDelay  ETV
vector 34  scenario.node[1].prot  frontDelayId  ETV
vector 57  scenario.node[2].prot  leaderDelay  ETV
vector 55  scenario.node[2].prot  leaderDelayId  ETV
vector 79  scenario.node[3].prot  leaderDelay  ETV
vector 77  scenario.node[3].prot  leaderDelayId  ETV
vector 101  scenario.node[4].prot  leaderDelay  ETV
vector 99  scenario.node[4].prot  leaderDelayId  ETV
vector 123  scenario.node[5].prot  leaderDelay  ETV
vector 121  scenario.node[5].prot  leaderDelayId  ETV
vector 145  scenario.node[6].prot  leaderDelay  ETV
vector 143  scenario.node[6].prot  leaderDelayId  ETV
vector 167  scenario.node[7].prot  leaderDelay  ETV
vector 165  scenario.node[7].prot  leaderDelayId  ETV
vector 80  scenario.node[3].prot  frontDelay  ETV
vector 78  scenario.node[3].prot  frontDelayId  ETV
vector 146  scenario.node[6].prot  frontDelay  ETV
vector 144  scenario.node[6].prot  frontDelayId  ETV
vector 58  scenario.node[2].prot  frontDelay  ETV
vector 56  scenario.node[2].prot  frontDelayId  ETV
vector 124  scenario.node[5].prot  frontDelay  ETV
vector 122  scenario.node[5].prot  frontDelayId  ETV
vector 168  scenario.node[7].prot  frontDelay  ETV
vector 166  scenario.node[7].prot  frontDelayId  ETV
vector 8  scenario.node[0].prot  nodeId  ETV
vector 9  scenario.node[0].prot  busyTime  ETV
vector 10  scenario.node[0].prot  collisions  ETV
vector 30  scenario.node[1].prot  nodeId  ETV
vector 31  scenario.node[1].prot  busyTime  ETV
vector 32  scenario.node[1].prot  collisions  ETV
vector 52  scenario.node[2].prot  nodeId  ETV
vector 53  scenario.node[2].prot  busyTime  ETV
vector 54  scenario.node[2].prot  collisions  ETV
vector 74  scenario.node[3].prot  nodeId  ETV
vector 75  scenario.node[3].prot  busyTime  ETV
vector 76  scenario.node[3].prot  collisions  ETV
vector 96  scenario.node[4].prot  nodeId  ETV
vector 97  scenario.node[4].prot  busyTime  ETV
vector 98  scenario.node[4].prot  collisions  ETV
vector 118  scenario.node[5].prot  nodeId  ETV
vector 119  scenario.node[5].prot  busyTime  ETV
vector 120  scenario.node[5].prot  collisions  ETV
vector 140  scenario.node[6].prot  nodeId  ETV
vector 141  scenario.node[6].prot  busyTime  ETV
vector 142  scenario.node[6].prot  collisions  ETV
vector 162  scenario.node[7].prot  nodeId  ETV
vector 163  scenario.node[7].prot  busyTime  ETV
vector 164  scenario.node[7].prot  collisions  ETV
7	11100 13862 232 328174 1.11 59.91 589 -1.5 1.5 -14.445978168666 993.24092374633
6	24962 18591 232 328174 1.11 59.91 589 -1.4722746794739 1.4513434175775 -12.507273387293 675.29835233824
5	43553 12081 232 328174 1.11 59.91 589 36.55 36.55 21527.95 786846.5725
4	55634 17895 232 328174 1.11 59.91 589 238.27520256003 2692.5913351469 863959.96455378 1563504183.8029
3	73529 17882 232 328174 1.11 59.91 589 40.376854748618 43.631381416411 24584.394369227 1026576.1694128
1	91411 9725 232 328174 1.11 59.91 589 0 0 0 0
0	101136 10314 232 328174 1.11 59.91 589 -1 -1 -589 589
2	111450 9725 232 328174 1.11 59.91 589 0 0 0 0
10	121175 859 5234 328728 2 60 59 0 0 0 0
9	122034 1155 5234 328728 2 60 59 0.023625 0.02625 1.546125 0.040523765625
8	123189 800 5234 328728 2 60 59 0 0 0 0
29	123989 19014 233 328175 1.11 59.91 589 -1.5218249787759 1.5 -12.704805721526 728.03395303246
28	143003 19236 233 328175 1.11 59.91 589 -1.4294163630005 1.3584965342602 -6.7430224889179 512.03926260386
27	162239 12670 233 328175 1.11 59.91 589 36.55 36.55 21527.95 786846.5725
26	174909 18502 233 328175 1.11 59.91 589 211.44185905457 2666.1426696212 848129.98823663 1517517557.1302
25	193411 18499 233 328175 1.11 59.91 589 40.568550640068 43.458779865428 24588.447804231 1026815.0890686
23	211910 19564 233 328175 1.11 59.91 589 -0.71716504108316 0.6957334787122 -3.9283622702875 137.88635513105
22	231474 18468 233 328175 1.11 59.91 589 22.255750103829 23.744671811215 13474.057385853 308329.67533958
24	249942 10314 233 328175 1.11 59.91 589 1 1 589 589
36	260256 23686 964 328350 1.241824685189 59.941824622258 588 0.099987535188 0.100000885222 58.799999906208 5.8799999833204
35	283942 23686 964 328350 1.241824685189 59.941824622258 588 0.099987535188 0.100000885222 58.799999906208 5.8799999833204
34	307628 16113 964 328350 1.241824685189 59.941824622258 588 1 1 588 588
33	323741 16113 964 328350 1.241824685189 59.941824622258 588 1 1 588 588
32	339854 859 5235 328729 2 60 59 0 0 0 0
31	340713 1214 5235 328729 2 60 59 0.023625 0.02625 1.546125 0.040523765625
30	341927 859 5235 328729 2 60 59 1 1 59 59
51	342786 19246 234 328176 1.11 59.91 589 -1.4848835446094 1.4124453176581 -6.3579403492114 555.08923885916
50	362032 19356 234 328176 1.11 59.91 589 -1.3416405151503 1.2224439841631 -0.26075232924825 390.95941010112
49	381388 12670 234 328176 1.11 59.91 589 36.55 36.55 21527.95 786846.5725
48	394058 18475 234 328176 1.11 59.91 589 184.6085308075 2639.3643084392 832301.18209692 1472383858.2521
47	412533 18488 234 328176 1.11 59.91 589 40.711950746591 43.331606975843 24589.224442288 1026808.1708292
45	431021 19516 234 328176 1.11 59.91 589 -0.68154799672995 0.63535484010326 -0.7092078317453 106.88352578005
44	450537 18491 234 328176 1.11 59.91 589 22.323718106815 23.681895273849 13472.821672477 308254.13763483
46	469028 10314 234 328176 1.11 59.91 589 2 2 1178 2356
58	479342 23710 1176 328562 1.281934490746 59.981934767549 588 0.099987126444 0.100012969272 58.800000245942 5.8800000516002
57	503052 23702 970 328356 1.241824774696 59.941824711516 588 0.099987535334 0.100000885316 58.799999905959 5.8799999832706
56	526754 16119 1176 328562 1.281934490746 59.981934767549 588 2 2 1176 2352
55	542873 16106 970 328356 1.241824774696 59.941824711516 588 2 2 1176 2352
54	558979 859 5236 328730 2 60 59 0 0 0 0
53	559838 1214 5236 328730 2 60 59 0.023625 0.02625 1.546125 0.040523765625
52	561052 859 5236 328730 2 60 59 2 2 118 236
73	561911 19303 235 328177 1.11 59.91 589 -1.3922110466735 1.2719654132111 0.39152696659923 424.3566871153
72	581214 19431 235 328177 1.11 59.91 589 -1.2341601764817 1.0771091870843 4.7074691524834 300.62208127738
71	600645 12670 235 328177 1.11 59.91 589 36.55 36.55 21527.95 786846.5725
70	613315 18488 235 328177 1.11 59.91 589 157.77520256042 2612.3120307437 816473.1480424 1428103991.1084
69	631803 18488 235 328177 1.11 59.91 589 40.828022318728 43.230808481628 24587.206100555 1026585.1172236
67	650291 19531 235 328177 1.11 59.91 589 -0.62920931327513 0.56250543979842 2.0209492563574 82.040145732003
66	669822 18489 235 328177 1.11 59.91 589 22.385842834621 23.627798772158 13471.993687682 308200.81996544
68	688311 10314 235 328177 1.11 59.91 589 3 3 1767 5301
80	698625 23705 1040 328426 1.262751864202 59.96275180167 588 0.099987364758 0.10001296258 58.799999906607 5.8799999837254
79	722330 23701 976 328362 1.241824864202 59.941824801703 588 0.099987535366 0.100000885487 58.79999990664 5.8799999834068
78	746031 16123 1040 328426 1.262751864202 59.96275180167 588 3 3 1764 5292
77	762154 16120 976 328362 1.241824864202 59.941824801703 588 3 3 1764 5292
76	778274 859 5237 328731 2 60 59 0 0 0 0
75	779133 1214 5237 328731 2 60 59 0.023625 0.02625 1.546125 0.040523765625
74	780347 859 5237 328731 2 60 59 3 3 177 531
95	781206 18176 236 328178 1.11 59.91 589 -7.2104044372574 1.5 3.4184566200454 1157.4946107742
94	799382 19379 236 328178 1.11 59.91 589 -6.1364498444441 1.4999999831019 0.59410233219275 962.25484943283
93	818761 12670 236 328178 1.11 59.91 589 36.55 36.55 21527.95 786846.5725
92	831431 18496 236 328178 1.11 59.91 589 130.94186668396 2534.5625100417 786231.87883271 1327181063.4898
91	849927 18482 236 328178 1.11 59.91 589 30.13422446656 45.863045805753 24077.889642261 990425.01760343
89	868409 19343 236 328178 1.11 59.91 589 -4.4362054262194 12.099695265978 509.26938360218 6581.1061023649
88	887752 18519 236 328178 1.11 59.91 589 22.438851118343 92.305030348978 27875.082880527 1755242.705223
90	906271 10314 236 328178 1.11 59.91 589 4 4 2356 9424
102	916585 24294 904 328296 1.24052741667 59.94052752587 588 0.099987418148 0.100012974015 58.800000078339 5.8800000180707
101	940879 24275 982 328368 1.241824953708 59.941825061091 588 0.099987537514 0.100000884765 58.800000076522 5.8800000173833
100	965154 16712 904 328296 1.24052741667 59.94052752587 588 4 4 2352 9408
99	981866 16107 982 328368 1.241824953708 59.941825061091 588 4 4 2352 9408
98	997973 859 5238 328732 2 60 59 0 0 0 0
97	998832 1214 5238 328732 2 60 59 0.023625 0.02625 1.546125 0.040523765625
96	1000046 859 5238 328732 2 60 59 4 4 236 944
117	1000905 19943 237 328179 1.11 59.91 589 -6.3204410899178 1.5780345170976 0.30923720211024 1014.2329196358
116	1020848 19958 237 328179 1.11 59.91 589 -5.5703800986983 1.5428104161671 -1.9574007052569 865.91537041569
115	1040806 13259 237 328179 1.11 59.91 589 36.55 36.55 21527.95 786846.5725
114	1054065 19086 237 328179 1.11 59.91 589 104.1085308075 2507.8172430087 770658.26258138 1286074164.7376
113	1073151 19083 237 328179 1.11 59.91 589 30.309529778224 45.786191591312 24078.681914602 990363.30869668
111	1092234 20137 237 328179 1.11 59.91 589 -2.8114264421076 0.75490511929224 -0.79821336437146 212.35204021352
110	1112371 19077 237 328179 1.11 59.91 589 17.167644104268 24.821225481176 13217.632096774 298070.20214065
112	1131448 10903 237 328179 1.11 59.91 589 5 5 2945 14725
124	1142351 24275 1242 328622 1.287391759265 59.987392206379 588 0.099987423573 0.100012969139 58.800000416253 5.8800000856533
123	1166626 24279 988 328374 1.241825043215 59.941825150329 588 0.099987537757 0.10000088501 58.800000076253 5.8800000173295
122	1190905 16698 1242 328622 1.287391759265 59.987392206379 588 5 5 2940 14700
121	1207603 16695 988 328374 1.241825043215 59.941825150329 588 5 5 2940 14700
120	1224298 918 5239 328733 2 60 59 0 0 0 0
119	1225216 1273 5239 328733 2 60 59 0.023625 0.02625 1.546125 0.040523765625
118	1226489 918 5239 328733 2 60 59 5 5 295 1475
139	1227407 19967 238 328180 1.11 59.91 589 -5.7433934231897 1.6332542161136 -2.272218815036 910.63517117057
138	1247374 20004 238 328180 1.11 59.91 589 -5.1560277411937 1.5873101556188 -3.2548879984883 792.04106495979
137	1267378 13259 238 328180 1.11 59.91 589 36.55 36.55 21527.95 786846.5725
136	1280637 19080 238 328180 1.11 59.91 589 77.275198745728 2481.1493362918 755084.31300904 1245797708.0738
135	1299717 19083 238 328180 1.11 59.91 589 30.442814194004 45.710902948544 24080.292700342 990382.93770359
133	1318800 20145 238 328180 1.11 59.91 589 -2.5928449763808 0.77280735044942 -1.5912117324119 193.05030840484
132	1338945 19070 238 328180 1.11 59.91 589 17.241100813799 24.783792290052 13217.981788056 298060.34630247
134	1358015 10903 238 328180 1.11 59.91 589 6 6 3534 21204
146	1368918 24292 1106 328486 1.266714132721 59.966714239315 588 0.099987526225 0.100000885151 58.800000075733 5.8800000172258
145	1393210 24295 994 328380 1.241825132721 59.941825239296 588 0.099987538016 0.100000885257 58.800000075714 5.8800000172217
144	1417505 16711 1106 328486 1.266714132721 59.966714239315 588 6 6 3528 21168
143	1434216 16708 994 328380 1.241825132721 59.941825239296 588 6 6 3528 21168
142	1450924 918 5240 328734 2 60 59 0 0 0 0
141	1451842 1273 5240 328734 2 60 59 0.023625 0.02625 1.546125 0.040523765625
140	1453115 918 5240 328734 2 60 59 6 6 354 2124
161	1454033 19993 239 328181 1.11 59.91 589 -5.307512543103 1.6748703793456 -3.4806035456886 831.22763275068
160	1474026 20042 239 328181 1.11 59.91 589 -4.8194579064877 1.6233374261745 -3.1153418522148 732.7352123331
159	1494068 13259 239 328181 1.11 59.91 589 36.55 36.55 21527.95 786846.5725
158	1507327 19091 239 328181 1.11 59.91 589 50.44186668396 2454.4828279225 739509.47737115 1206349915.3442
157	1526418 19075 239 328181 1.11 59.91 589 30.55899685682 45.637222879869 24081.967839683 990417.33456702
155	1545493 20148 239 328181 1.11 59.91 589 -2.4156731781949 0.78675370441355 -1.6425904615771 177.44636715481
154	1565641 19073 239 328181 1.11 59.91 589 17.308531103145 24.747492195242 13218.86914067 298074.31821829
156	1584714 10903 239 328181 1.11 59.91 589 7 7 4123 28861
168	1595617 24281 1308 328688 1.289468938278 59.989469384312 588 0.099987156884 0.100012977393 58.800000415173 5.880000085446
167	1619898 24287 1000 328386 1.241825222228 59.941825328244 588 0.099987538283 0.1000008855 58.800000075155 5.8800000171099
166	1644185 16701 1308 328688 1.289468938278 59.989469384312 588 7 7 4116 28812
165	1660886 16706 1000 328386 1.241825222228 59.941825328244 588 7 7 4116 28812
164	1677592 918 5241 328735 2 60 59 0 0 0 0
163	1678510 1273 5241 328735 2 60 59 0.023625 0.02625 1.546125 0.040523765625
162	1679783 918 5241 328735 2 60 59 7 7 413 2891
