file 892782 1512144338                                          
version 2
run SinusoidalAccInjectionAttack-281-20171201-17:05:21-23620
attr CACCSpacing 5
attr attackAcc 30
attr attackPos 7
attr attackSpeed 150
attr attackStart 30
attr attacker 4
attr beaconInterval 0.1
attr configname SinusoidalAccInjectionAttack
attr controller 1
attr datetime 20171201-17:05:21
attr experiment SinusoidalAccInjectionAttack
attr fakeAcc "(4 == 4)"
attr fakePos "(4 == 2)"
attr fakeSpeed "(4 == 3)"
attr inifile omnetpp_281.ini
attr iterationvars "$attacker=4, $attackSpeed=150, $attackPos=7, $attackAcc=30, $leaderSpeed=150, $controller=1, $CACCSpacing=5, $sController=\"CACC\", $attackStart=30, $0=5, $1=0, $nCars=8, $platoonSize=8, $nLanes=1, $beaconInterval=0.1, $priority=2, $packetSize=200, $ploegH=0.5, $leaderHeadway=1.2, $fakeSpeed=(4 == 3), $fakeAcc=(4 == 4), $fakePos=(4 == 2)"
attr iterationvarsf attacker=4,attackSpeed=150,attackPos=7,attackAcc=30,leaderSpeed=150,controller=1,CACCSpacing=5,sController=CACC,attackStart=30,5,0,nCars=8,platoonSize=8,nLanes=1,beaconInterval=0.1,priority=2,packetSize=200,ploegH=0.5,leaderHeadway=1.2,fakeSpeed=(4_==_3),fakeAcc=(4_==_4),fakePos=(4_==_2)-
attr leaderHeadway 1.2
attr leaderSpeed 150
attr measurement "$attacker=4, $attackSpeed=150, $attackPos=7, $attackAcc=30, $leaderSpeed=150, $controller=1, $CACCSpacing=5, $sController=\"CACC\", $attackStart=30, $0=5, $1=0, $nCars=8, $platoonSize=8, $nLanes=1, $beaconInterval=0.1, $priority=2, $packetSize=200, $ploegH=0.5, $leaderHeadway=1.2, $fakeSpeed=(4 == 3), $fakeAcc=(4 == 4), $fakePos=(4 == 2)"
attr nCars 8
attr nLanes 1
attr network scenario
attr packetSize 200
attr platoonSize 8
attr ploegH 0.5
attr priority 2
attr processid 23620
attr repetition 1
attr replication #1
attr resultdir results
attr runnumber 281
attr sController "\"CACC\""
attr seedset 1
param **.coreDebug false
param **.debug false
param **.headway 0.1s
param **.numberOfCars 8
param **.numberOfCarsPerPlatoon 8
param **.numberOfLanes 1
param **.numericController 1
param **.traffic.nCars 8
param **.traffic.nLanes 1
param **.traffic.platoonInsertDistance 5m
param **.traffic.platoonInsertHeadway 0s
param **.traffic.platoonInsertSpeed 150kmph
param **.traffic.platoonInsertTime "1 s"
param **.traffic.platoonLeaderHeadway 1.2s
param **.traffic.platoonSize 8
param **.traffic.platooningVType "\"vtypeauto\""
param **.traffic_type "\"PlatoonsTrafficManager\""
param *.**.nic.mac1609_4.bitrate 6Mbps
param *.**.nic.mac1609_4.txPower 100mW
param *.**.nic.mac1609_4.useServiceChannel false
param *.**.nic.phy80211p.analogueModels "xmldoc(\"config.xml\")"
param *.**.nic.phy80211p.decider "xmldoc(\"config.xml\")"
param *.**.nic.phy80211p.maxTXPower 100mW
param *.**.nic.phy80211p.sensitivity -94dBm
param *.**.nic.phy80211p.thermalNoise -95dBm
param *.**.nic.phy80211p.usePropagationDelay true
param *.**.nic.phy80211p.useThermalNoise true
param *.annotations.draw false
param *.connectionManager.alpha 2.0
param *.connectionManager.carrierFrequency "5.890e9 Hz"
param *.connectionManager.pMax 100mW
param *.connectionManager.sat -94dBm
param *.connectionManager.sendDirect true
param *.manager.autoShutdown true
param *.manager.commandLine "\"sumo --remote-port $port --seed $seed --configuration-file $configFile\""
param *.manager.configFile "\"./sumocfg/freeway.sumo.cfg\""
param *.manager.host "\"localhost\""
param *.manager.margin 25
param *.manager.moduleDisplayString "\"\""
param *.manager.moduleName "\"node\""
param *.manager.moduleType "\"Car\""
param *.manager.updateInterval 0.01s
param *.node[*].appl.attackStart 30s
param *.node[*].appl.attackerType 4
param *.node[*].appl.simulationDuration "60 s"
param *.node[*].appl_type "\"SimplePlatooningApp\""
param *.node[*].helper.nCars 8
param *.node[*].helper.nLanes 1
param *.node[*].helper.platoonSize 8
param *.node[*].helper_type "\"PositionHelper\""
param *.node[*].mobility.x 0
param *.node[*].mobility.y 0
param *.node[*].mobility.z 1.895
param *.node[*].prot.attackStart 30s
param *.node[*].prot.attackerType 4
param *.node[*].prot.attackingNode 3
param *.node[*].prot.beaconingInterval 0.1s
param *.node[*].prot.fakeAcc "(4 == 4)"
param *.node[*].prot.fakePos "(4 == 2)"
param *.node[*].prot.fakeSpeed "(4 == 3)"
param *.node[*].prot.maliciousAcc "30 mpss"
param *.node[*].prot.maliciousSpeed 150kmph
param *.node[*].prot.packetSize 200
param *.node[*].prot.priority 2
param *.node[*].prot.shiftX "7 m"
param *.node[*].prot.useControllerAcceleration true
param *.node[*].protocol_type "\"SimplePlatooningBeaconing\""
param *.node[*].scenario.accHeadway 0.1s
param *.node[*].scenario.caccC1 0.5
param *.node[*].scenario.caccOmegaN "0.2 Hz"
param *.node[*].scenario.caccSpacing 5m
param *.node[*].scenario.caccXi 1
param *.node[*].scenario.controller "\"CACC\""
param *.node[*].scenario.engineTau "0.5 s"
param *.node[*].scenario.leaderHeadway 1.2s
param *.node[*].scenario.leaderSpeed 150kmph
param *.node[*].scenario.ploegH 0.5s
param *.node[*].scenario.ploegKd 0.7
param *.node[*].scenario.ploegKp 0.2
param *.node[*].scenario.useRealisticEngine false
param *.node[*].scenario_type "\"SinusoidalScenario\""
param *.node[*].unicast.packetLossRate 0
param *.obstacles.debug false
param *.playgroundSizeX 65000m
param *.playgroundSizeY 25000m
param *.playgroundSizeZ 50m
param *.world.use2D false
param *.world.useTorus false

vector 0  scenario.node[0].appl  distance  ETV
vector 1  scenario.node[0].appl  relativeSpeed  ETV
vector 2  scenario.node[0].appl  nodeId  ETV
vector 6  scenario.node[0].appl  acceleration  ETV
vector 7  scenario.node[0].appl  controllerAcceleration  ETV
vector 3  scenario.node[0].appl  speed  ETV
vector 4  scenario.node[0].appl  posx  ETV
vector 5  scenario.node[0].appl  posy  ETV
vector 22  scenario.node[1].appl  distance  ETV
vector 23  scenario.node[1].appl  relativeSpeed  ETV
vector 24  scenario.node[1].appl  nodeId  ETV
vector 28  scenario.node[1].appl  acceleration  ETV
vector 29  scenario.node[1].appl  controllerAcceleration  ETV
vector 25  scenario.node[1].appl  speed  ETV
vector 26  scenario.node[1].appl  posx  ETV
vector 27  scenario.node[1].appl  posy  ETV
vector 44  scenario.node[2].appl  distance  ETV
vector 45  scenario.node[2].appl  relativeSpeed  ETV
vector 46  scenario.node[2].appl  nodeId  ETV
vector 50  scenario.node[2].appl  acceleration  ETV
vector 51  scenario.node[2].appl  controllerAcceleration  ETV
vector 47  scenario.node[2].appl  speed  ETV
vector 48  scenario.node[2].appl  posx  ETV
vector 49  scenario.node[2].appl  posy  ETV
vector 66  scenario.node[3].appl  distance  ETV
vector 67  scenario.node[3].appl  relativeSpeed  ETV
vector 68  scenario.node[3].appl  nodeId  ETV
vector 72  scenario.node[3].appl  acceleration  ETV
vector 73  scenario.node[3].appl  controllerAcceleration  ETV
vector 69  scenario.node[3].appl  speed  ETV
vector 70  scenario.node[3].appl  posx  ETV
vector 71  scenario.node[3].appl  posy  ETV
vector 88  scenario.node[4].appl  distance  ETV
vector 89  scenario.node[4].appl  relativeSpeed  ETV
vector 90  scenario.node[4].appl  nodeId  ETV
vector 94  scenario.node[4].appl  acceleration  ETV
vector 95  scenario.node[4].appl  controllerAcceleration  ETV
vector 91  scenario.node[4].appl  speed  ETV
vector 92  scenario.node[4].appl  posx  ETV
vector 93  scenario.node[4].appl  posy  ETV
vector 110  scenario.node[5].appl  distance  ETV
vector 111  scenario.node[5].appl  relativeSpeed  ETV
vector 112  scenario.node[5].appl  nodeId  ETV
vector 116  scenario.node[5].appl  acceleration  ETV
vector 117  scenario.node[5].appl  controllerAcceleration  ETV
vector 113  scenario.node[5].appl  speed  ETV
vector 114  scenario.node[5].appl  posx  ETV
vector 115  scenario.node[5].appl  posy  ETV
vector 132  scenario.node[6].appl  distance  ETV
vector 133  scenario.node[6].appl  relativeSpeed  ETV
vector 134  scenario.node[6].appl  nodeId  ETV
vector 138  scenario.node[6].appl  acceleration  ETV
vector 139  scenario.node[6].appl  controllerAcceleration  ETV
vector 135  scenario.node[6].appl  speed  ETV
vector 136  scenario.node[6].appl  posx  ETV
vector 137  scenario.node[6].appl  posy  ETV
vector 154  scenario.node[7].appl  distance  ETV
vector 155  scenario.node[7].appl  relativeSpeed  ETV
vector 156  scenario.node[7].appl  nodeId  ETV
vector 160  scenario.node[7].appl  acceleration  ETV
vector 161  scenario.node[7].appl  controllerAcceleration  ETV
vector 157  scenario.node[7].appl  speed  ETV
vector 158  scenario.node[7].appl  posx  ETV
vector 159  scenario.node[7].appl  posy  ETV
vector 58  scenario.node[2].prot  frontDelay  ETV
vector 56  scenario.node[2].prot  frontDelayId  ETV
vector 102  scenario.node[4].prot  frontDelay  ETV
vector 100  scenario.node[4].prot  frontDelayId  ETV
vector 146  scenario.node[6].prot  frontDelay  ETV
vector 144  scenario.node[6].prot  frontDelayId  ETV
vector 168  scenario.node[7].prot  frontDelay  ETV
vector 166  scenario.node[7].prot  frontDelayId  ETV
vector 124  scenario.node[5].prot  frontDelay  ETV
vector 122  scenario.node[5].prot  frontDelayId  ETV
vector 35  scenario.node[1].prot  leaderDelay  ETV
vector 33  scenario.node[1].prot  leaderDelayId  ETV
vector 36  scenario.node[1].prot  frontDelay  ETV
vector 34  scenario.node[1].prot  frontDelayId  ETV
vector 57  scenario.node[2].prot  leaderDelay  ETV
vector 55  scenario.node[2].prot  leaderDelayId  ETV
vector 79  scenario.node[3].prot  leaderDelay  ETV
vector 77  scenario.node[3].prot  leaderDelayId  ETV
vector 101  scenario.node[4].prot  leaderDelay  ETV
vector 99  scenario.node[4].prot  leaderDelayId  ETV
vector 123  scenario.node[5].prot  leaderDelay  ETV
vector 121  scenario.node[5].prot  leaderDelayId  ETV
vector 145  scenario.node[6].prot  leaderDelay  ETV
vector 143  scenario.node[6].prot  leaderDelayId  ETV
vector 167  scenario.node[7].prot  leaderDelay  ETV
vector 165  scenario.node[7].prot  leaderDelayId  ETV
vector 80  scenario.node[3].prot  frontDelay  ETV
vector 78  scenario.node[3].prot  frontDelayId  ETV
vector 8  scenario.node[0].prot  nodeId  ETV
vector 9  scenario.node[0].prot  busyTime  ETV
vector 10  scenario.node[0].prot  collisions  ETV
vector 30  scenario.node[1].prot  nodeId  ETV
vector 31  scenario.node[1].prot  busyTime  ETV
vector 32  scenario.node[1].prot  collisions  ETV
vector 52  scenario.node[2].prot  nodeId  ETV
vector 53  scenario.node[2].prot  busyTime  ETV
vector 54  scenario.node[2].prot  collisions  ETV
vector 74  scenario.node[3].prot  nodeId  ETV
vector 75  scenario.node[3].prot  busyTime  ETV
vector 76  scenario.node[3].prot  collisions  ETV
vector 96  scenario.node[4].prot  nodeId  ETV
vector 97  scenario.node[4].prot  busyTime  ETV
vector 98  scenario.node[4].prot  collisions  ETV
vector 118  scenario.node[5].prot  nodeId  ETV
vector 119  scenario.node[5].prot  busyTime  ETV
vector 120  scenario.node[5].prot  collisions  ETV
vector 140  scenario.node[6].prot  nodeId  ETV
vector 141  scenario.node[6].prot  busyTime  ETV
vector 142  scenario.node[6].prot  collisions  ETV
vector 162  scenario.node[7].prot  nodeId  ETV
vector 163  scenario.node[7].prot  busyTime  ETV
vector 164  scenario.node[7].prot  collisions  ETV
7	11077 7542 232 175340 1.11 32.51 315 -1.5 1.5 13.746014552298 493.8098403155
6	18619 9872 232 175340 1.11 32.51 315 -1.4722746794739 1.4513407705138 12.847972104927 335.54193363446
5	28491 6327 232 175340 1.11 32.51 315 36.55 36.55 11513.25 420809.2875
4	34818 9449 232 175340 1.11 32.51 315 99.772059249478 1411.9102330932 238470.76295181 226015521.8173
3	44267 9428 232 175340 1.11 32.51 315 40.376926150007 43.631381416411 13163.496214286 550319.26608953
1	53695 5067 232 175340 1.11 32.51 315 0 0 0 0
0	58762 5382 232 175340 1.11 32.51 315 -1 -1 -315 315
2	64144 5067 232 175340 1.11 32.51 315 0 0 0 0
10	69211 438 5168 172478 2 32 31 0 0 0 0
9	69649 594 5168 172478 2 32 31 0.023297 0.02625 0.810797 0.021214625209
8	70243 407 5168 172478 2 32 31 0 0 0 0
29	70650 10126 233 175341 1.11 32.51 315 -1.5555551920973 1.5570065806119 14.961897593619 514.3429641414
28	80776 10183 233 175341 1.11 32.51 315 -1.4954736412641 1.476140170606 12.689352111578 344.42697001529
27	90959 6642 233 175341 1.11 32.51 315 36.55 36.55 11513.25 420809.2875
26	97601 9750 233 175341 1.11 32.51 315 90.772059249878 1402.7814235224 235629.03237238 221740803.0352
25	107351 9752 233 175341 1.11 32.51 315 40.360517330394 43.640189945694 13162.20045653 550215.50115225
23	117103 10499 233 175341 1.11 32.51 315 -0.12424054129113 0.12345093525423 1.167278035517 2.5352693872308
22	127602 9760 233 175341 1.11 32.51 315 4.8776196999893 5.1830413249279 1581.7046642734 7944.3114389004
24	137362 5382 233 175341 1.11 32.51 315 1 1 315 315
36	142744 12487 1238 175233 1.297801900626 32.497808806428 313 0.099998464161 0.100011482557 31.300005386136 3.130001082741
35	155231 12487 1238 175233 1.297801900626 32.497808806428 313 0.099998464161 0.100011482557 31.300005386136 3.130001082741
34	167718 8445 1238 175233 1.297801900626 32.497808806428 313 1 1 313 313
33	176163 8445 1238 175233 1.297801900626 32.497808806428 313 1 1 313 313
32	184608 438 5169 172479 2 32 31 0 0 0 0
31	185046 625 5169 172479 2 32 31 0.023297 0.02625 0.810797 0.021214625209
30	185671 438 5169 172479 2 32 31 1 1 31 31
51	186109 10120 234 175342 1.11 32.51 315 -1.509213596604 1.5122039307383 14.998517652657 487.6406034177
50	196229 10183 234 175342 1.11 32.51 315 -1.4841297360832 1.4673660728072 12.561016157404 339.41136993188
49	206412 6642 234 175342 1.11 32.51 315 36.55 36.55 11513.25 420809.2875
48	213054 9746 234 175342 1.11 32.51 315 81.772059249878 1393.7698182255 232790.89351526 217520667.74785
47	222800 9760 234 175342 1.11 32.51 315 40.37087298373 43.628786597664 13162.079734293 550201.86519791
45	232560 10898 234 175342 1.11 32.51 315 -0.010773792808216 0.012241032060388 -0.0061712849338988 0.013480739355608
44	243458 9745 234 175342 1.11 32.51 315 4.9921308100888 5.0331336584793 1578.1364426772 7906.4316960419
46	253203 5382 234 175342 1.11 32.51 315 2 2 630 1260
58	258585 12523 832 175378 1.212435510355 32.512440896604 314 0.099998465705 0.100011482567 31.400003866583 3.1400007788326
57	271108 12490 1244 175239 1.297801930647 32.497808836486 313 0.099998464165 0.100011482561 31.300005386173 3.1300010827484
56	283598 8479 832 175378 1.212435510355 32.512440896604 314 2 2 628 1256
55	292077 8446 1244 175239 1.297801930647 32.497808836486 313 2 2 626 1252
54	300523 438 5170 172480 2 32 31 0 0 0 0
53	300961 625 5170 172480 2 32 31 0.023296 0.02625 0.810796 0.021214578616
52	301586 438 5170 172480 2 32 31 2 2 62 124
73	302024 10106 235 175343 1.11 32.51 315 -1.4954488807892 1.4986508406297 14.967436037287 473.28512775686
72	312130 10152 235 175343 1.11 32.51 315 -1.4697266324674 1.4522561965705 12.344229099408 332.83132804172
71	322282 6642 235 175343 1.11 32.51 315 36.55 36.55 11513.25 420809.2875
70	328924 9758 235 175343 1.11 32.51 315 72.772059249878 1384.7471320664 229952.89826032 213352263.39075
69	338682 9760 235 175343 1.11 32.51 315 40.385663984105 43.613786586721 13161.845001547 550177.72538243
67	348442 10740 235 175343 1.11 32.51 315 -0.021936206482252 0.021653869345336 0.10912258446001 0.042786316572358
66	359182 9717 235 175343 1.11 32.51 315 4.9809316148167 5.0520778488931 1577.9905602874 7905.0353770375
68	368899 5382 235 175343 1.11 32.51 315 3 3 945 2835
80	374281 12481 1312 175308 1.307223960668 32.507217866582 313 0.099998464174 0.10001148239 31.299992386248 3.1299984826341
79	386762 12502 1250 175245 1.297801960667 32.497808866581 313 0.099998464174 0.100011482564 31.300005386248 3.1300010827634
78	399264 8436 1312 175308 1.307223960668 32.507217866582 313 3 3 939 2817
77	407700 8452 1250 175245 1.297801960667 32.497808866581 313 3 3 939 2817
76	416152 438 5171 172481 2 32 31 0 0 0 0
75	416590 625 5171 172481 2 32 31 0.023297 0.02625 0.810797 0.021214625209
74	417215 438 5171 172481 2 32 31 3 3 93 279
117	417653 10433 237 175345 1.11 32.51 315 -1.5284774893968 8.5821549785275 181.71551235756 2011.0173997408
116	428086 10487 237 175345 1.11 32.51 315 -1.4661745290063 2.4999999999999 46.261320259251 446.2802518496
115	438573 6957 237 175345 1.11 32.51 315 36.55 36.55 11513.25 420809.2875
114	445530 10073 237 175345 1.11 32.51 315 54.772061157227 1371.0554082759 224316.46529184 205272870.47122
113	455603 10054 237 175345 1.11 32.51 315 40.39013919359 46.17839265271 13206.099268989 553982.89003762
111	465657 10943 237 175345 1.11 32.51 315 -0.020206166733274 0.27181810314447 6.4279378818316 1.8077963548708
110	476600 10059 237 175345 1.11 32.51 315 4.9769312963394 5.6755277084478 1585.6532817026 7985.3639870028
112	486659 5697 237 175345 1.11 32.51 315 5 5 1575 7875
124	492356 12805 1178 175173 1.297388780543 32.497382704034 313 0.099998465387 0.100011482451 31.299992403825 3.1299984861495
123	505161 12815 1262 175257 1.297802020709 32.497808912472 313 0.099998463103 0.100011482566 31.300005372097 3.1300010799332
122	517976 8762 1178 175173 1.297388780543 32.497382704034 313 5 5 1565 7825
121	526738 8775 1262 175257 1.297802020709 32.497808912472 313 5 5 1565 7825
120	535513 469 5173 172483 2 32 31 0 0 0 0
119	535982 656 5173 172483 2 32 31 0.023297 0.02625 0.810797 0.021214625209
118	536638 469 5173 172483 2 32 31 5 5 155 775
139	537107 10421 238 175346 1.11 32.51 315 -1.49997270917 5.0582758442784 93.26371916204 924.35094908876
138	547528 10505 238 175346 1.11 32.51 315 -1.460550548709 2.4999999999999 42.936087595731 433.66156340462
137	558033 6957 238 175346 1.11 32.51 315 36.55 36.55 11513.25 420809.2875
136	564990 10077 238 175346 1.11 32.51 315 45.772061157227 1361.2964092382 221470.03853543 201232862.87991
135	575067 10065 238 175346 1.11 32.51 315 40.396437717495 45.845513335539 13198.393359893 553314.33781664
133	585132 10952 238 175346 1.11 32.51 315 -0.021561673899747 0.30787931717104 7.2432958933475 2.164429935283
132	596084 10043 238 175346 1.11 32.51 315 4.9964405477343 5.7523414513844 1586.2726382243 7992.3111540294
134	606127 5697 238 175346 1.11 32.51 315 6 6 1890 11340
146	611824 12796 970 174965 1.248712630439 32.448706541533 313 0.099998464786 0.100011482458 31.299992391428 3.1299984836701
145	624620 12793 1268 175263 1.29780205073 32.497808945003 313 0.099998463215 0.100011482569 31.300005374607 3.1300010804352
144	637413 8759 970 174965 1.248712630439 32.448706541533 313 6 6 1878 11268
143	646172 8764 1268 175263 1.29780205073 32.497808945003 313 6 6 1878 11268
142	654936 469 5174 172484 2 32 31 0 0 0 0
141	655405 656 5174 172484 2 32 31 0.023297 0.02625 0.810797 0.021214625209
140	656061 469 5174 172484 2 32 31 6 6 186 1116
161	656530 10431 239 175347 1.11 32.51 315 -1.5093935053088 3.3095694933777 54.14667640414 645.40043999861
160	666961 10492 239 175347 1.11 32.51 315 -1.4619692904546 2.4999999999999 38.003396519524 417.27696299211
159	677453 6957 239 175347 1.11 32.51 315 36.55 36.55 11513.25 420809.2875
158	684410 10071 239 175347 1.11 32.51 315 36.772060680389 1351.4735968057 218624.07991469 197244789.56017
157	694481 10076 239 175347 1.11 32.51 315 40.394236659727 45.377762443434 13189.997155751 552589.74583491
155	704557 10963 239 175347 1.11 32.51 315 -0.02182572587332 0.44276058205745 7.9668432659722 2.8305810413146
154	715520 10073 239 175347 1.11 32.51 315 4.9915517758219 5.8134574146484 1585.7906966627 7987.7109073697
156	725593 5697 239 175347 1.11 32.51 315 7 7 2205 15435
168	731290 12794 1040 175035 1.26389366046 32.463887574221 313 0.09999846493 0.100011482459 31.299992394095 3.1299984842035
167	744084 12792 1274 175269 1.29780208075 32.497808977737 313 0.099998463362 0.100011482568 31.300005377321 3.130001080978
166	756876 8757 1040 175035 1.26389366046 32.463887574221 313 7 7 2191 15337
165	765633 8759 1274 175269 1.29780208075 32.497808977737 313 7 7 2191 15337
164	774392 469 5175 172485 2 32 31 0 0 0 0
163	774861 656 5175 172485 2 32 31 0.023297 0.02625 0.810797 0.021214625209
162	775517 469 5175 172485 2 32 31 7 7 217 1519
88	775986 9751 236 175416 1.11 32.52 316 0 5.0167039135717 1531.6647721249 7585.7613598061
89	785737 10735 236 175416 1.11 32.52 316 -3.6461824236482 0.015827589086236 -54.943639759767 143.47910843497
90	796472 5400 236 175416 1.11 32.52 316 4 4 1264 5056
91	801872 9794 236 175416 1.11 32.52 316 40.388381021967 46.500210755854 13259.519227348 556747.85857428
92	811666 9790 236 175416 1.11 32.52 316 63.772059249878 1381.202124454 228543.45909295 211269513.61345
93	821456 6664 236 175416 1.11 32.52 316 36.55 36.55 11549.8 422145.19
94	828120 10200 236 175416 1.11 32.52 316 -1.46716202919 2.4999999999999 51.680972148561 459.92166193507
95	838320 10142 236 175416 1.11 32.52 316 -1.5015734350113 15.627874080452 365.05646396335 6006.6044188021
96	848462 438 5172 172482 2 32 31 4 4 124 496
97	848900 625 5172 172482 2 32 31 0.023297 0.02625 0.810797 0.021214625209
98	849525 438 5172 172482 2 32 31 0 0 0 0
99	849963 8452 1256 175251 1.297801990688 32.497808880198 313 4 4 1252 5008
100	858415 8769 902 174891 1.235039570397 32.435046476844 313 4 4 1252 5008
101	867184 12800 1256 175251 1.297801990688 32.497808880198 313 0.099998463004 0.100011482566 31.300005369844 3.1300010794826
102	879984 12798 902 174891 1.235039570397 32.435046476844 313 0.099998466051 0.100011482572 31.300005386781 3.1300010828699
