file 893185 1512143390                                          
version 2
run SinusoidalAccInjectionAttack-101-20171201-16:49:33-28976
attr CACCSpacing 5
attr attackAcc -10
attr attackPos 7
attr attackSpeed 150
attr attackStart 30
attr attacker 4
attr beaconInterval 0.1
attr configname SinusoidalAccInjectionAttack
attr controller 1
attr datetime 20171201-16:49:33
attr experiment SinusoidalAccInjectionAttack
attr fakeAcc "(4 == 4)"
attr fakePos "(4 == 2)"
attr fakeSpeed "(4 == 3)"
attr inifile omnetpp_101.ini
attr iterationvars "$attacker=4, $attackSpeed=150, $attackPos=7, $attackAcc=-10, $leaderSpeed=150, $controller=1, $CACCSpacing=5, $sController=\"CACC\", $attackStart=30, $0=5, $1=0, $nCars=8, $platoonSize=8, $nLanes=1, $beaconInterval=0.1, $priority=2, $packetSize=200, $ploegH=0.5, $leaderHeadway=1.2, $fakeSpeed=(4 == 3), $fakeAcc=(4 == 4), $fakePos=(4 == 2)"
attr iterationvarsf attacker=4,attackSpeed=150,attackPos=7,attackAcc=-10,leaderSpeed=150,controller=1,CACCSpacing=5,sController=CACC,attackStart=30,5,0,nCars=8,platoonSize=8,nLanes=1,beaconInterval=0.1,priority=2,packetSize=200,ploegH=0.5,leaderHeadway=1.2,fakeSpeed=(4_==_3),fakeAcc=(4_==_4),fakePos=(4_==_2)-
attr leaderHeadway 1.2
attr leaderSpeed 150
attr measurement "$attacker=4, $attackSpeed=150, $attackPos=7, $attackAcc=-10, $leaderSpeed=150, $controller=1, $CACCSpacing=5, $sController=\"CACC\", $attackStart=30, $0=5, $1=0, $nCars=8, $platoonSize=8, $nLanes=1, $beaconInterval=0.1, $priority=2, $packetSize=200, $ploegH=0.5, $leaderHeadway=1.2, $fakeSpeed=(4 == 3), $fakeAcc=(4 == 4), $fakePos=(4 == 2)"
attr nCars 8
attr nLanes 1
attr network scenario
attr packetSize 200
attr platoonSize 8
attr ploegH 0.5
attr priority 2
attr processid 28976
attr repetition 1
attr replication #1
attr resultdir results
attr runnumber 101
attr sController "\"CACC\""
attr seedset 1
param **.coreDebug false
param **.debug false
param **.headway 0.1s
param **.numberOfCars 8
param **.numberOfCarsPerPlatoon 8
param **.numberOfLanes 1
param **.numericController 1
param **.traffic.nCars 8
param **.traffic.nLanes 1
param **.traffic.platoonInsertDistance 5m
param **.traffic.platoonInsertHeadway 0s
param **.traffic.platoonInsertSpeed 150kmph
param **.traffic.platoonInsertTime "1 s"
param **.traffic.platoonLeaderHeadway 1.2s
param **.traffic.platoonSize 8
param **.traffic.platooningVType "\"vtypeauto\""
param **.traffic_type "\"PlatoonsTrafficManager\""
param *.**.nic.mac1609_4.bitrate 6Mbps
param *.**.nic.mac1609_4.txPower 100mW
param *.**.nic.mac1609_4.useServiceChannel false
param *.**.nic.phy80211p.analogueModels "xmldoc(\"config.xml\")"
param *.**.nic.phy80211p.decider "xmldoc(\"config.xml\")"
param *.**.nic.phy80211p.maxTXPower 100mW
param *.**.nic.phy80211p.sensitivity -94dBm
param *.**.nic.phy80211p.thermalNoise -95dBm
param *.**.nic.phy80211p.usePropagationDelay true
param *.**.nic.phy80211p.useThermalNoise true
param *.annotations.draw false
param *.connectionManager.alpha 2.0
param *.connectionManager.carrierFrequency "5.890e9 Hz"
param *.connectionManager.pMax 100mW
param *.connectionManager.sat -94dBm
param *.connectionManager.sendDirect true
param *.manager.autoShutdown true
param *.manager.commandLine "\"sumo --remote-port $port --seed $seed --configuration-file $configFile\""
param *.manager.configFile "\"./sumocfg/freeway.sumo.cfg\""
param *.manager.host "\"localhost\""
param *.manager.margin 25
param *.manager.moduleDisplayString "\"\""
param *.manager.moduleName "\"node\""
param *.manager.moduleType "\"Car\""
param *.manager.updateInterval 0.01s
param *.node[*].appl.attackStart 30s
param *.node[*].appl.attackerType 4
param *.node[*].appl.simulationDuration "60 s"
param *.node[*].appl_type "\"SimplePlatooningApp\""
param *.node[*].helper.nCars 8
param *.node[*].helper.nLanes 1
param *.node[*].helper.platoonSize 8
param *.node[*].helper_type "\"PositionHelper\""
param *.node[*].mobility.x 0
param *.node[*].mobility.y 0
param *.node[*].mobility.z 1.895
param *.node[*].prot.attackStart 30s
param *.node[*].prot.attackerType 4
param *.node[*].prot.attackingNode 3
param *.node[*].prot.beaconingInterval 0.1s
param *.node[*].prot.fakeAcc "(4 == 4)"
param *.node[*].prot.fakePos "(4 == 2)"
param *.node[*].prot.fakeSpeed "(4 == 3)"
param *.node[*].prot.maliciousAcc "-10 mpss"
param *.node[*].prot.maliciousSpeed 150kmph
param *.node[*].prot.packetSize 200
param *.node[*].prot.priority 2
param *.node[*].prot.shiftX "7 m"
param *.node[*].prot.useControllerAcceleration true
param *.node[*].protocol_type "\"SimplePlatooningBeaconing\""
param *.node[*].scenario.accHeadway 0.1s
param *.node[*].scenario.caccC1 0.5
param *.node[*].scenario.caccOmegaN "0.2 Hz"
param *.node[*].scenario.caccSpacing 5m
param *.node[*].scenario.caccXi 1
param *.node[*].scenario.controller "\"CACC\""
param *.node[*].scenario.engineTau "0.5 s"
param *.node[*].scenario.leaderHeadway 1.2s
param *.node[*].scenario.leaderSpeed 150kmph
param *.node[*].scenario.ploegH 0.5s
param *.node[*].scenario.ploegKd 0.7
param *.node[*].scenario.ploegKp 0.2
param *.node[*].scenario.useRealisticEngine false
param *.node[*].scenario_type "\"SinusoidalScenario\""
param *.node[*].unicast.packetLossRate 0
param *.obstacles.debug false
param *.playgroundSizeX 65000m
param *.playgroundSizeY 25000m
param *.playgroundSizeZ 50m
param *.world.use2D false
param *.world.useTorus false

vector 0  scenario.node[0].appl  distance  ETV
vector 1  scenario.node[0].appl  relativeSpeed  ETV
vector 2  scenario.node[0].appl  nodeId  ETV
vector 6  scenario.node[0].appl  acceleration  ETV
vector 7  scenario.node[0].appl  controllerAcceleration  ETV
vector 3  scenario.node[0].appl  speed  ETV
vector 4  scenario.node[0].appl  posx  ETV
vector 5  scenario.node[0].appl  posy  ETV
vector 22  scenario.node[1].appl  distance  ETV
vector 23  scenario.node[1].appl  relativeSpeed  ETV
vector 24  scenario.node[1].appl  nodeId  ETV
vector 28  scenario.node[1].appl  acceleration  ETV
vector 29  scenario.node[1].appl  controllerAcceleration  ETV
vector 25  scenario.node[1].appl  speed  ETV
vector 26  scenario.node[1].appl  posx  ETV
vector 27  scenario.node[1].appl  posy  ETV
vector 44  scenario.node[2].appl  distance  ETV
vector 45  scenario.node[2].appl  relativeSpeed  ETV
vector 46  scenario.node[2].appl  nodeId  ETV
vector 50  scenario.node[2].appl  acceleration  ETV
vector 51  scenario.node[2].appl  controllerAcceleration  ETV
vector 47  scenario.node[2].appl  speed  ETV
vector 48  scenario.node[2].appl  posx  ETV
vector 49  scenario.node[2].appl  posy  ETV
vector 66  scenario.node[3].appl  distance  ETV
vector 67  scenario.node[3].appl  relativeSpeed  ETV
vector 68  scenario.node[3].appl  nodeId  ETV
vector 72  scenario.node[3].appl  acceleration  ETV
vector 73  scenario.node[3].appl  controllerAcceleration  ETV
vector 69  scenario.node[3].appl  speed  ETV
vector 70  scenario.node[3].appl  posx  ETV
vector 71  scenario.node[3].appl  posy  ETV
vector 88  scenario.node[4].appl  distance  ETV
vector 89  scenario.node[4].appl  relativeSpeed  ETV
vector 90  scenario.node[4].appl  nodeId  ETV
vector 94  scenario.node[4].appl  acceleration  ETV
vector 95  scenario.node[4].appl  controllerAcceleration  ETV
vector 91  scenario.node[4].appl  speed  ETV
vector 92  scenario.node[4].appl  posx  ETV
vector 93  scenario.node[4].appl  posy  ETV
vector 110  scenario.node[5].appl  distance  ETV
vector 111  scenario.node[5].appl  relativeSpeed  ETV
vector 112  scenario.node[5].appl  nodeId  ETV
vector 116  scenario.node[5].appl  acceleration  ETV
vector 117  scenario.node[5].appl  controllerAcceleration  ETV
vector 113  scenario.node[5].appl  speed  ETV
vector 114  scenario.node[5].appl  posx  ETV
vector 115  scenario.node[5].appl  posy  ETV
vector 132  scenario.node[6].appl  distance  ETV
vector 133  scenario.node[6].appl  relativeSpeed  ETV
vector 134  scenario.node[6].appl  nodeId  ETV
vector 138  scenario.node[6].appl  acceleration  ETV
vector 139  scenario.node[6].appl  controllerAcceleration  ETV
vector 135  scenario.node[6].appl  speed  ETV
vector 136  scenario.node[6].appl  posx  ETV
vector 137  scenario.node[6].appl  posy  ETV
vector 154  scenario.node[7].appl  distance  ETV
vector 155  scenario.node[7].appl  relativeSpeed  ETV
vector 156  scenario.node[7].appl  nodeId  ETV
vector 160  scenario.node[7].appl  acceleration  ETV
vector 161  scenario.node[7].appl  controllerAcceleration  ETV
vector 157  scenario.node[7].appl  speed  ETV
vector 158  scenario.node[7].appl  posx  ETV
vector 159  scenario.node[7].appl  posy  ETV
vector 58  scenario.node[2].prot  frontDelay  ETV
vector 56  scenario.node[2].prot  frontDelayId  ETV
vector 102  scenario.node[4].prot  frontDelay  ETV
vector 100  scenario.node[4].prot  frontDelayId  ETV
vector 146  scenario.node[6].prot  frontDelay  ETV
vector 144  scenario.node[6].prot  frontDelayId  ETV
vector 168  scenario.node[7].prot  frontDelay  ETV
vector 166  scenario.node[7].prot  frontDelayId  ETV
vector 124  scenario.node[5].prot  frontDelay  ETV
vector 122  scenario.node[5].prot  frontDelayId  ETV
vector 35  scenario.node[1].prot  leaderDelay  ETV
vector 33  scenario.node[1].prot  leaderDelayId  ETV
vector 36  scenario.node[1].prot  frontDelay  ETV
vector 34  scenario.node[1].prot  frontDelayId  ETV
vector 57  scenario.node[2].prot  leaderDelay  ETV
vector 55  scenario.node[2].prot  leaderDelayId  ETV
vector 79  scenario.node[3].prot  leaderDelay  ETV
vector 77  scenario.node[3].prot  leaderDelayId  ETV
vector 101  scenario.node[4].prot  leaderDelay  ETV
vector 99  scenario.node[4].prot  leaderDelayId  ETV
vector 123  scenario.node[5].prot  leaderDelay  ETV
vector 121  scenario.node[5].prot  leaderDelayId  ETV
vector 145  scenario.node[6].prot  leaderDelay  ETV
vector 143  scenario.node[6].prot  leaderDelayId  ETV
vector 167  scenario.node[7].prot  leaderDelay  ETV
vector 165  scenario.node[7].prot  leaderDelayId  ETV
vector 80  scenario.node[3].prot  frontDelay  ETV
vector 78  scenario.node[3].prot  frontDelayId  ETV
vector 8  scenario.node[0].prot  nodeId  ETV
vector 9  scenario.node[0].prot  busyTime  ETV
vector 10  scenario.node[0].prot  collisions  ETV
vector 30  scenario.node[1].prot  nodeId  ETV
vector 31  scenario.node[1].prot  busyTime  ETV
vector 32  scenario.node[1].prot  collisions  ETV
vector 52  scenario.node[2].prot  nodeId  ETV
vector 53  scenario.node[2].prot  busyTime  ETV
vector 54  scenario.node[2].prot  collisions  ETV
vector 74  scenario.node[3].prot  nodeId  ETV
vector 75  scenario.node[3].prot  busyTime  ETV
vector 76  scenario.node[3].prot  collisions  ETV
vector 96  scenario.node[4].prot  nodeId  ETV
vector 97  scenario.node[4].prot  busyTime  ETV
vector 98  scenario.node[4].prot  collisions  ETV
vector 118  scenario.node[5].prot  nodeId  ETV
vector 119  scenario.node[5].prot  busyTime  ETV
vector 120  scenario.node[5].prot  collisions  ETV
vector 140  scenario.node[6].prot  nodeId  ETV
vector 141  scenario.node[6].prot  busyTime  ETV
vector 142  scenario.node[6].prot  collisions  ETV
vector 162  scenario.node[7].prot  nodeId  ETV
vector 163  scenario.node[7].prot  busyTime  ETV
vector 164  scenario.node[7].prot  collisions  ETV
7	11082 7542 232 175340 1.11 32.51 315 -1.5 1.5 13.746014552298 493.8098403155
6	18624 9872 232 175340 1.11 32.51 315 -1.4722746794739 1.4513407705138 12.847972104927 335.54193363446
5	28496 6327 232 175340 1.11 32.51 315 36.55 36.55 11513.25 420809.2875
4	34823 9449 232 175340 1.11 32.51 315 99.772059249478 1411.9102330932 238470.76295181 226015521.8173
3	44272 9428 232 175340 1.11 32.51 315 40.376926150007 43.631381416411 13163.496214286 550319.26608953
1	53700 5067 232 175340 1.11 32.51 315 0 0 0 0
0	58767 5382 232 175340 1.11 32.51 315 -1 -1 -315 315
2	64149 5067 232 175340 1.11 32.51 315 0 0 0 0
10	69216 438 5168 172478 2 32 31 0 0 0 0
9	69654 594 5168 172478 2 32 31 0.023297 0.02625 0.810797 0.021214625209
8	70248 407 5168 172478 2 32 31 0 0 0 0
29	70655 10126 233 175341 1.11 32.51 315 -1.5555551920973 1.5570065806119 14.961897593619 514.3429641414
28	80781 10183 233 175341 1.11 32.51 315 -1.4954736412641 1.476140170606 12.689352111578 344.42697001529
27	90964 6642 233 175341 1.11 32.51 315 36.55 36.55 11513.25 420809.2875
26	97606 9750 233 175341 1.11 32.51 315 90.772059249878 1402.7814235224 235629.03237238 221740803.0352
25	107356 9752 233 175341 1.11 32.51 315 40.360517330394 43.640189945694 13162.20045653 550215.50115225
23	117108 10499 233 175341 1.11 32.51 315 -0.12424054129113 0.12345093525423 1.167278035517 2.5352693872308
22	127607 9760 233 175341 1.11 32.51 315 4.8776196999893 5.1830413249279 1581.7046642734 7944.3114389004
24	137367 5382 233 175341 1.11 32.51 315 1 1 315 315
36	142749 12483 1238 175233 1.297801900626 32.497809000973 313 0.099998479442 0.100011489562 31.300005580681 3.1300011216502
35	155232 12483 1238 175233 1.297801900626 32.497809000973 313 0.099998479442 0.100011489562 31.300005580681 3.1300011216502
34	167715 8444 1238 175233 1.297801900626 32.497809000973 313 1 1 313 313
33	176159 8444 1238 175233 1.297801900626 32.497809000973 313 1 1 313 313
32	184603 438 5169 172479 2 32 31 0 0 0 0
31	185041 625 5169 172479 2 32 31 0.023297 0.02625 0.810797 0.021214625209
30	185666 438 5169 172479 2 32 31 1 1 31 31
51	186104 10120 234 175342 1.11 32.51 315 -1.509213596604 1.5122039307383 14.998517652657 487.6406034177
50	196224 10183 234 175342 1.11 32.51 315 -1.4841297360832 1.4673660728072 12.561016157404 339.41136993188
49	206407 6642 234 175342 1.11 32.51 315 36.55 36.55 11513.25 420809.2875
48	213049 9746 234 175342 1.11 32.51 315 81.772059249878 1393.7698182255 232790.89351526 217520667.74785
47	222795 9760 234 175342 1.11 32.51 315 40.37087298373 43.628786597664 13162.079734293 550201.86519791
45	232555 10898 234 175342 1.11 32.51 315 -0.010773792808216 0.012241032060388 -0.0061712849338988 0.013480739355608
44	243453 9745 234 175342 1.11 32.51 315 4.9921308100888 5.0331336584793 1578.1364426772 7906.4316960419
46	253198 5382 234 175342 1.11 32.51 315 2 2 630 1260
58	258580 12522 832 175378 1.212435510355 32.512441091149 314 0.099998479432 0.100011490586 31.400004061128 3.140000817742
57	271102 12485 1244 175239 1.297801930647 32.497809031031 313 0.099998479438 0.100011489567 31.300005580718 3.1300011216576
56	283587 8479 832 175378 1.212435510355 32.512441091149 314 2 2 628 1256
55	292066 8446 1244 175239 1.297801930647 32.497809031031 313 2 2 626 1252
54	300512 438 5170 172480 2 32 31 0 0 0 0
53	300950 625 5170 172480 2 32 31 0.023296 0.02625 0.810796 0.021214578616
52	301575 438 5170 172480 2 32 31 2 2 62 124
73	302013 10106 235 175343 1.11 32.51 315 -1.4954488807892 1.4986508406297 14.967436037287 473.28512775686
72	312119 10152 235 175343 1.11 32.51 315 -1.4697266324674 1.4522561965705 12.344229099408 332.83132804172
71	322271 6642 235 175343 1.11 32.51 315 36.55 36.55 11513.25 420809.2875
70	328913 9758 235 175343 1.11 32.51 315 72.772059249878 1384.7471320664 229952.89826032 213352263.39075
69	338671 9760 235 175343 1.11 32.51 315 40.385663984105 43.613786586721 13161.845001547 550177.72538243
67	348431 10740 235 175343 1.11 32.51 315 -0.021936206482252 0.021653869345336 0.10912258446001 0.042786316572358
66	359171 9717 235 175343 1.11 32.51 315 4.9809316148167 5.0520778488931 1577.9905602874 7905.0353770375
68	368888 5382 235 175343 1.11 32.51 315 3 3 945 2835
80	374270 12477 1312 175308 1.307223960668 32.507218061127 313 0.099998479434 0.100011485145 31.299992580793 3.129998521543
79	386747 12497 1250 175245 1.297801960667 32.497809061126 313 0.099998479435 0.100011489577 31.300005580793 3.1300011216726
78	399244 8431 1312 175308 1.307223960668 32.507218061127 313 3 3 939 2817
77	407675 8447 1250 175245 1.297801960667 32.497809061126 313 3 3 939 2817
76	416122 438 5171 172481 2 32 31 0 0 0 0
75	416560 625 5171 172481 2 32 31 0.023297 0.02625 0.810797 0.021214625209
74	417185 438 5171 172481 2 32 31 3 3 93 279
95	417623 10133 236 175344 1.11 32.51 315 -4.3423043209295 1.506086239001 -81.093320002262 636.74558622274
94	427756 10190 236 175344 1.11 32.51 315 -3.1744069627436 1.4503898350611 -73.247975686111 458.81549303358
93	437946 6642 236 175344 1.11 32.51 315 36.55 36.55 11513.25 420809.2875
92	444588 9756 236 175344 1.11 32.51 315 63.772059249878 1365.6199872369 227032.85188129 209012274.62796
91	454344 9756 236 175344 1.11 32.51 315 34.419321097512 43.609774304364 13057.594791608 542049.10618106
89	464100 10685 236 175344 1.11 32.51 315 -0.013223225592235 8.4462977231421 104.12676764811 621.66378903675
88	474785 9734 236 175344 1.11 32.51 315 4.9999999859501 14.958081865928 1657.9613748326 9207.0271913589
90	484519 5382 236 175344 1.11 32.51 315 4 4 1260 5040
102	489901 12834 902 175460 1.235039570397 32.535045185616 314 0.099998479465 0.100011493403 31.400004095553 3.140000824627
101	502735 12808 1256 175251 1.297801990688 32.497809124363 313 0.099998479461 0.100011492264 31.300005614009 3.1300011283158
100	515543 8793 902 175460 1.235039570397 32.535045185616 314 4 4 1256 5024
99	524336 8455 1256 175251 1.297801990688 32.497809124363 313 4 4 1252 5008
98	532791 438 5172 172482 2 32 31 0 0 0 0
97	533229 625 5172 172482 2 32 31 0.023297 0.02625 0.810797 0.021214625209
96	533854 438 5172 172482 2 32 31 4 4 124 496
139	534292 10465 238 175346 1.11 32.51 315 -1.7764049961047 1.5046152313456 -18.72183926424 440.27099359429
138	544757 10562 238 175346 1.11 32.51 315 -1.460550548709 1.4432664555088 -15.134082073025 299.38248043211
137	555319 6957 238 175346 1.11 32.51 315 36.55 36.55 11513.25 420809.2875
136	562276 10075 238 175346 1.11 32.51 315 45.772061157227 1355.0045968727 221419.90071548 201098906.06056
135	572351 10065 238 175346 1.11 32.51 315 40.183711700704 43.599166746536 13133.467690966 547838.30770903
133	582416 10962 238 175346 1.11 32.51 315 -2.1101782359874 0.023301929706179 -25.706924774418 39.177712320861
132	593378 10043 238 175346 1.11 32.51 315 2.5098349404107 5.0188540117688 1557.6157115522 7732.3337762856
134	603421 5697 238 175346 1.11 32.51 315 6 6 1890 11340
146	609118 12833 970 175522 1.248712630439 32.548705220567 314 0.099998479425 0.100011484985 31.399991070462 3.139998219479
145	621951 12792 1268 175263 1.29780205073 32.497809160157 313 0.099998479432 0.100011490405 31.300005589761 3.1300011234662
144	634743 8784 970 175522 1.248712630439 32.548705220567 314 6 6 1884 11304
143	643527 8763 1268 175263 1.29780205073 32.497809160157 313 6 6 1878 11268
142	652290 469 5174 172484 2 32 31 0 0 0 0
141	652759 656 5174 172484 2 32 31 0.023297 0.02625 0.810797 0.021214625209
140	653415 469 5174 172484 2 32 31 6 6 186 1116
161	653884 10459 239 175347 1.11 32.51 315 -1.5093935053088 1.5126458994111 -4.6067133073391 453.50077311856
160	664343 10517 239 175347 1.11 32.51 315 -1.4619692904546 1.4451435688265 -2.984638726835 305.2023394291
159	674860 6957 239 175347 1.11 32.51 315 36.55 36.55 11513.25 420809.2875
158	681817 10069 239 175347 1.11 32.51 315 36.772060680389 1347.2804815345 218592.32131648 197160433.42206
157	691886 10077 239 175347 1.11 32.51 315 40.380508887514 43.600869559239 13146.64847384 548911.07054503
155	701963 10981 239 175347 1.11 32.51 315 -1.1876784975354 0.024254029064608 -13.029442052833 10.975902865219
154	712944 10073 239 175347 1.11 32.51 315 3.7479905868727 5.0179693968698 1567.8430146627 7810.7512595631
156	723017 5697 239 175347 1.11 32.51 315 7 7 2205 15435
168	728714 12792 1040 175035 1.26389366046 32.463887755047 313 0.099998479424 0.100011485475 31.299992574921 3.1299985203686
167	741506 12792 1274 175269 1.29780208075 32.497809186002 313 0.099998479433 0.100011490032 31.300005585586 3.1300011226312
166	754298 8753 1040 175035 1.26389366046 32.463887755047 313 7 7 2191 15337
165	763051 8759 1274 175269 1.29780208075 32.497809186002 313 7 7 2191 15337
164	771810 469 5175 172485 2 32 31 0 0 0 0
163	772279 656 5175 172485 2 32 31 0.023297 0.02625 0.810797 0.021214625209
162	772935 469 5175 172485 2 32 31 7 7 217 1519
110	773404 10082 237 175556 1.11 32.56 316 0 5.0458383262255 1536.8529122396 7617.1706812601
111	783486 10980 237 175556 1.11 32.56 316 -3.6532383879142 0.020930926089335 -52.721092983122 145.19162326871
112	794466 5716 237 175556 1.11 32.56 316 5 5 1580 7900
113	800182 10109 237 175556 1.11 32.56 316 38.001067593433 43.606818977637 13145.396193554 547224.37949839
114	810291 10103 237 175556 1.11 32.56 316 54.772061157227 1363.3726714183 225600.36764715 206918125.42494
115	820394 6980 237 175556 1.11 32.56 316 36.55 36.55 11549.8 422145.19
116	827374 10553 237 175556 1.11 32.56 316 -1.4661745290063 1.4484846967797 -37.824973941846 326.92198666322
117	837927 10502 237 175556 1.11 32.56 316 -2.0102892115299 1.5300606396935 -46.245206243029 488.9471096376
118	848429 469 5173 172483 2 32 31 5 5 155 775
119	848898 656 5173 172483 2 32 31 0.023297 0.02625 0.810797 0.021214625209
120	849554 469 5173 172483 2 32 31 0 0 0 0
121	850023 8775 1262 175257 1.297802020709 32.497809138443 313 5 5 1565 7825
122	858798 8764 1178 175167 1.297388780543 32.497382830764 313 5 5 1565 7825
123	867562 12816 1262 175257 1.297802020709 32.497809138443 313 0.099998479437 0.100011491082 31.300005598068 3.1300011251276
124	880378 12807 1178 175167 1.297388780543 32.497382830764 313 0.099998478927 0.100011482451 31.299992530555 3.1299985114954
