file 951770 1512144355                                          
version 2
run SinusoidalAccInjectionAttack-288-20171201-17:05:38-14565
attr CACCSpacing 20
attr attackAcc 30
attr attackPos 7
attr attackSpeed 150
attr attackStart 30
attr attacker 4
attr beaconInterval 0.1
attr configname SinusoidalAccInjectionAttack
attr controller 1
attr datetime 20171201-17:05:38
attr experiment SinusoidalAccInjectionAttack
attr fakeAcc "(4 == 4)"
attr fakePos "(4 == 2)"
attr fakeSpeed "(4 == 3)"
attr inifile omnetpp_288.ini
attr iterationvars "$attacker=4, $attackSpeed=150, $attackPos=7, $attackAcc=30, $leaderSpeed=150, $controller=1, $CACCSpacing=20, $sController=\"CACC\", $attackStart=30, $0=20, $1=0, $nCars=8, $platoonSize=8, $nLanes=1, $beaconInterval=0.1, $priority=2, $packetSize=200, $ploegH=0.5, $leaderHeadway=1.2, $fakeSpeed=(4 == 3), $fakeAcc=(4 == 4), $fakePos=(4 == 2)"
attr iterationvarsf attacker=4,attackSpeed=150,attackPos=7,attackAcc=30,leaderSpeed=150,controller=1,CACCSpacing=20,sController=CACC,attackStart=30,20,0,nCars=8,platoonSize=8,nLanes=1,beaconInterval=0.1,priority=2,packetSize=200,ploegH=0.5,leaderHeadway=1.2,fakeSpeed=(4_==_3),fakeAcc=(4_==_4),fakePos=(4_==_2)-
attr leaderHeadway 1.2
attr leaderSpeed 150
attr measurement "$attacker=4, $attackSpeed=150, $attackPos=7, $attackAcc=30, $leaderSpeed=150, $controller=1, $CACCSpacing=20, $sController=\"CACC\", $attackStart=30, $0=20, $1=0, $nCars=8, $platoonSize=8, $nLanes=1, $beaconInterval=0.1, $priority=2, $packetSize=200, $ploegH=0.5, $leaderHeadway=1.2, $fakeSpeed=(4 == 3), $fakeAcc=(4 == 4), $fakePos=(4 == 2)"
attr nCars 8
attr nLanes 1
attr network scenario
attr packetSize 200
attr platoonSize 8
attr ploegH 0.5
attr priority 2
attr processid 14565
attr repetition 3
attr replication #3
attr resultdir results
attr runnumber 288
attr sController "\"CACC\""
attr seedset 3
param **.coreDebug false
param **.debug false
param **.headway 0.1s
param **.numberOfCars 8
param **.numberOfCarsPerPlatoon 8
param **.numberOfLanes 1
param **.numericController 1
param **.traffic.nCars 8
param **.traffic.nLanes 1
param **.traffic.platoonInsertDistance 20m
param **.traffic.platoonInsertHeadway 0s
param **.traffic.platoonInsertSpeed 150kmph
param **.traffic.platoonInsertTime "1 s"
param **.traffic.platoonLeaderHeadway 1.2s
param **.traffic.platoonSize 8
param **.traffic.platooningVType "\"vtypeauto\""
param **.traffic_type "\"PlatoonsTrafficManager\""
param *.**.nic.mac1609_4.bitrate 6Mbps
param *.**.nic.mac1609_4.txPower 100mW
param *.**.nic.mac1609_4.useServiceChannel false
param *.**.nic.phy80211p.analogueModels "xmldoc(\"config.xml\")"
param *.**.nic.phy80211p.decider "xmldoc(\"config.xml\")"
param *.**.nic.phy80211p.maxTXPower 100mW
param *.**.nic.phy80211p.sensitivity -94dBm
param *.**.nic.phy80211p.thermalNoise -95dBm
param *.**.nic.phy80211p.usePropagationDelay true
param *.**.nic.phy80211p.useThermalNoise true
param *.annotations.draw false
param *.connectionManager.alpha 2.0
param *.connectionManager.carrierFrequency "5.890e9 Hz"
param *.connectionManager.pMax 100mW
param *.connectionManager.sat -94dBm
param *.connectionManager.sendDirect true
param *.manager.autoShutdown true
param *.manager.commandLine "\"sumo --remote-port $port --seed $seed --configuration-file $configFile\""
param *.manager.configFile "\"./sumocfg/freeway.sumo.cfg\""
param *.manager.host "\"localhost\""
param *.manager.margin 25
param *.manager.moduleDisplayString "\"\""
param *.manager.moduleName "\"node\""
param *.manager.moduleType "\"Car\""
param *.manager.updateInterval 0.01s
param *.node[*].appl.attackStart 30s
param *.node[*].appl.attackerType 4
param *.node[*].appl.simulationDuration "60 s"
param *.node[*].appl_type "\"SimplePlatooningApp\""
param *.node[*].helper.nCars 8
param *.node[*].helper.nLanes 1
param *.node[*].helper.platoonSize 8
param *.node[*].helper_type "\"PositionHelper\""
param *.node[*].mobility.x 0
param *.node[*].mobility.y 0
param *.node[*].mobility.z 1.895
param *.node[*].prot.attackStart 30s
param *.node[*].prot.attackerType 4
param *.node[*].prot.attackingNode 3
param *.node[*].prot.beaconingInterval 0.1s
param *.node[*].prot.fakeAcc "(4 == 4)"
param *.node[*].prot.fakePos "(4 == 2)"
param *.node[*].prot.fakeSpeed "(4 == 3)"
param *.node[*].prot.maliciousAcc "30 mpss"
param *.node[*].prot.maliciousSpeed 150kmph
param *.node[*].prot.packetSize 200
param *.node[*].prot.priority 2
param *.node[*].prot.shiftX "7 m"
param *.node[*].prot.useControllerAcceleration true
param *.node[*].protocol_type "\"SimplePlatooningBeaconing\""
param *.node[*].scenario.accHeadway 0.1s
param *.node[*].scenario.caccC1 0.5
param *.node[*].scenario.caccOmegaN "0.2 Hz"
param *.node[*].scenario.caccSpacing 20m
param *.node[*].scenario.caccXi 1
param *.node[*].scenario.controller "\"CACC\""
param *.node[*].scenario.engineTau "0.5 s"
param *.node[*].scenario.leaderHeadway 1.2s
param *.node[*].scenario.leaderSpeed 150kmph
param *.node[*].scenario.ploegH 0.5s
param *.node[*].scenario.ploegKd 0.7
param *.node[*].scenario.ploegKp 0.2
param *.node[*].scenario.useRealisticEngine false
param *.node[*].scenario_type "\"SinusoidalScenario\""
param *.node[*].unicast.packetLossRate 0
param *.obstacles.debug false
param *.playgroundSizeX 65000m
param *.playgroundSizeY 25000m
param *.playgroundSizeZ 50m
param *.world.use2D false
param *.world.useTorus false

vector 0  scenario.node[0].appl  distance  ETV
vector 1  scenario.node[0].appl  relativeSpeed  ETV
vector 2  scenario.node[0].appl  nodeId  ETV
vector 6  scenario.node[0].appl  acceleration  ETV
vector 7  scenario.node[0].appl  controllerAcceleration  ETV
vector 3  scenario.node[0].appl  speed  ETV
vector 4  scenario.node[0].appl  posx  ETV
vector 5  scenario.node[0].appl  posy  ETV
vector 22  scenario.node[1].appl  distance  ETV
vector 23  scenario.node[1].appl  relativeSpeed  ETV
vector 24  scenario.node[1].appl  nodeId  ETV
vector 28  scenario.node[1].appl  acceleration  ETV
vector 29  scenario.node[1].appl  controllerAcceleration  ETV
vector 25  scenario.node[1].appl  speed  ETV
vector 26  scenario.node[1].appl  posx  ETV
vector 27  scenario.node[1].appl  posy  ETV
vector 44  scenario.node[2].appl  distance  ETV
vector 45  scenario.node[2].appl  relativeSpeed  ETV
vector 46  scenario.node[2].appl  nodeId  ETV
vector 50  scenario.node[2].appl  acceleration  ETV
vector 51  scenario.node[2].appl  controllerAcceleration  ETV
vector 47  scenario.node[2].appl  speed  ETV
vector 48  scenario.node[2].appl  posx  ETV
vector 49  scenario.node[2].appl  posy  ETV
vector 66  scenario.node[3].appl  distance  ETV
vector 67  scenario.node[3].appl  relativeSpeed  ETV
vector 68  scenario.node[3].appl  nodeId  ETV
vector 72  scenario.node[3].appl  acceleration  ETV
vector 73  scenario.node[3].appl  controllerAcceleration  ETV
vector 69  scenario.node[3].appl  speed  ETV
vector 70  scenario.node[3].appl  posx  ETV
vector 71  scenario.node[3].appl  posy  ETV
vector 88  scenario.node[4].appl  distance  ETV
vector 89  scenario.node[4].appl  relativeSpeed  ETV
vector 90  scenario.node[4].appl  nodeId  ETV
vector 94  scenario.node[4].appl  acceleration  ETV
vector 95  scenario.node[4].appl  controllerAcceleration  ETV
vector 91  scenario.node[4].appl  speed  ETV
vector 92  scenario.node[4].appl  posx  ETV
vector 93  scenario.node[4].appl  posy  ETV
vector 110  scenario.node[5].appl  distance  ETV
vector 111  scenario.node[5].appl  relativeSpeed  ETV
vector 112  scenario.node[5].appl  nodeId  ETV
vector 116  scenario.node[5].appl  acceleration  ETV
vector 117  scenario.node[5].appl  controllerAcceleration  ETV
vector 113  scenario.node[5].appl  speed  ETV
vector 114  scenario.node[5].appl  posx  ETV
vector 115  scenario.node[5].appl  posy  ETV
vector 132  scenario.node[6].appl  distance  ETV
vector 133  scenario.node[6].appl  relativeSpeed  ETV
vector 134  scenario.node[6].appl  nodeId  ETV
vector 138  scenario.node[6].appl  acceleration  ETV
vector 139  scenario.node[6].appl  controllerAcceleration  ETV
vector 135  scenario.node[6].appl  speed  ETV
vector 136  scenario.node[6].appl  posx  ETV
vector 137  scenario.node[6].appl  posy  ETV
vector 154  scenario.node[7].appl  distance  ETV
vector 155  scenario.node[7].appl  relativeSpeed  ETV
vector 156  scenario.node[7].appl  nodeId  ETV
vector 160  scenario.node[7].appl  acceleration  ETV
vector 161  scenario.node[7].appl  controllerAcceleration  ETV
vector 157  scenario.node[7].appl  speed  ETV
vector 158  scenario.node[7].appl  posx  ETV
vector 159  scenario.node[7].appl  posy  ETV
vector 35  scenario.node[1].prot  leaderDelay  ETV
vector 33  scenario.node[1].prot  leaderDelayId  ETV
vector 36  scenario.node[1].prot  frontDelay  ETV
vector 34  scenario.node[1].prot  frontDelayId  ETV
vector 57  scenario.node[2].prot  leaderDelay  ETV
vector 55  scenario.node[2].prot  leaderDelayId  ETV
vector 79  scenario.node[3].prot  leaderDelay  ETV
vector 77  scenario.node[3].prot  leaderDelayId  ETV
vector 101  scenario.node[4].prot  leaderDelay  ETV
vector 99  scenario.node[4].prot  leaderDelayId  ETV
vector 123  scenario.node[5].prot  leaderDelay  ETV
vector 121  scenario.node[5].prot  leaderDelayId  ETV
vector 145  scenario.node[6].prot  leaderDelay  ETV
vector 143  scenario.node[6].prot  leaderDelayId  ETV
vector 167  scenario.node[7].prot  leaderDelay  ETV
vector 165  scenario.node[7].prot  leaderDelayId  ETV
vector 168  scenario.node[7].prot  frontDelay  ETV
vector 166  scenario.node[7].prot  frontDelayId  ETV
vector 58  scenario.node[2].prot  frontDelay  ETV
vector 56  scenario.node[2].prot  frontDelayId  ETV
vector 124  scenario.node[5].prot  frontDelay  ETV
vector 122  scenario.node[5].prot  frontDelayId  ETV
vector 80  scenario.node[3].prot  frontDelay  ETV
vector 78  scenario.node[3].prot  frontDelayId  ETV
vector 146  scenario.node[6].prot  frontDelay  ETV
vector 144  scenario.node[6].prot  frontDelayId  ETV
vector 102  scenario.node[4].prot  frontDelay  ETV
vector 100  scenario.node[4].prot  frontDelayId  ETV
vector 8  scenario.node[0].prot  nodeId  ETV
vector 9  scenario.node[0].prot  busyTime  ETV
vector 10  scenario.node[0].prot  collisions  ETV
vector 30  scenario.node[1].prot  nodeId  ETV
vector 31  scenario.node[1].prot  busyTime  ETV
vector 32  scenario.node[1].prot  collisions  ETV
vector 52  scenario.node[2].prot  nodeId  ETV
vector 53  scenario.node[2].prot  busyTime  ETV
vector 54  scenario.node[2].prot  collisions  ETV
vector 74  scenario.node[3].prot  nodeId  ETV
vector 75  scenario.node[3].prot  busyTime  ETV
vector 76  scenario.node[3].prot  collisions  ETV
vector 96  scenario.node[4].prot  nodeId  ETV
vector 97  scenario.node[4].prot  busyTime  ETV
vector 98  scenario.node[4].prot  collisions  ETV
vector 118  scenario.node[5].prot  nodeId  ETV
vector 119  scenario.node[5].prot  busyTime  ETV
vector 120  scenario.node[5].prot  collisions  ETV
vector 140  scenario.node[6].prot  nodeId  ETV
vector 141  scenario.node[6].prot  busyTime  ETV
vector 142  scenario.node[6].prot  collisions  ETV
vector 162  scenario.node[7].prot  nodeId  ETV
vector 163  scenario.node[7].prot  busyTime  ETV
vector 164  scenario.node[7].prot  collisions  ETV
7	11086 7999 232 187053 1.11 34.61 336 -1.5 1.5 -15.781550423395 536.79312970673
6	19085 10550 232 187053 1.11 34.61 336 -1.4722746794739 1.4513407705138 -9.8825004688734 363.90908413719
5	29635 6768 232 187053 1.11 34.61 336 36.55 36.55 12280.8 448863.24
4	36403 10091 232 187053 1.11 34.61 336 211.51262931784 1611.9947168191 306646.39770997 335041932.30606
3	46494 10077 232 187053 1.11 34.61 336 40.376926150007 43.631381416411 14046.150853122 587429.17084959
1	56571 5424 232 187053 1.11 34.61 336 0 0 0 0
0	61995 5760 232 187053 1.11 34.61 336 -1 -1 -336 336
2	67755 5424 232 187053 1.11 34.61 336 0 0 0 0
10	73179 468 5056 183522 2 34 33 0 0 0 0
9	73647 858 5056 183522 2 34 33 0.022755747372 0.026262189362 0.862757081048 0.022567894372067
8	74505 435 5056 183522 2 34 33 0 0 0 0
29	74940 9894 233 187054 1.11 34.61 336 -1.5201885308666 1.5215379204632 -16.296094432865 538.73362343591
28	84834 10871 233 187054 1.11 34.61 336 -1.4845166983122 1.4492363480585 -9.0841194550222 363.48128612319
27	95705 7104 233 187054 1.11 34.61 336 36.55 36.55 12280.8 448863.24
26	102809 10428 233 187054 1.11 34.61 336 187.51262931824 1587.9319608548 298559.93907267 320466610.08377
25	113237 10430 233 187054 1.11 34.61 336 40.371478735482 43.62712233618 14045.553373187 587379.37160579
23	123667 11383 233 187054 1.11 34.61 336 -0.083288756717003 0.092346611381046 0.6963049395308 1.3013384691322
22	135050 10421 233 187054 1.11 34.61 336 19.942679106234 20.212890320125 6742.4466877055 135300.95389577
24	145471 5760 233 187054 1.11 34.61 336 1 1 336 336
36	151231 13310 836 186544 1.269559161495 34.569558093352 334 0.099987080745 0.100000084633 33.399999013297 3.3399998029953
35	164541 13310 836 186544 1.269559161495 34.569558093352 334 0.099987080745 0.100000084633 33.399999013297 3.3399998029953
34	177851 9032 836 186544 1.269559161495 34.569558093352 334 1 1 334 334
33	186883 9032 836 186544 1.269559161495 34.569558093352 334 1 1 334 334
32	195915 468 5057 183523 2 34 33 0 0 0 0
31	196383 886 5057 183523 2 34 33 0.022755827428 0.026262189695 0.862757161512 0.022567898036972
30	197269 468 5057 183523 2 34 33 1 1 33 33
51	197737 9739 234 187055 1.11 34.61 336 -1.5268714810323 1.5218527219734 -16.714335969811 539.24856105898
50	207476 10875 234 187055 1.11 34.61 336 -1.4757144547325 1.4406976858346 -8.8405335187637 359.89308061189
49	218351 7104 234 187055 1.11 34.61 336 36.55 36.55 12280.8 448863.24
48	225455 10428 234 187055 1.11 34.61 336 163.51262931824 1563.8861209769 290486.29978849 306307959.98059
47	235883 10429 234 187055 1.11 34.61 336 40.375456256857 43.620133812015 14045.102531464 587339.27413863
45	246312 11627 234 187055 1.11 34.61 336 -0.0098541919231039 0.013218819442223 0.54168291807034 0.011635592953473
44	257939 10414 234 187055 1.11 34.61 336 19.996915685746 20.069185433084 6729.6302673381 134785.63442503
46	268353 5760 234 187055 1.11 34.61 336 2 2 672 1344
58	274113 13311 1046 186748 1.299191202215 34.599190123805 334 0.099987083066 0.100000084645 33.39999900303 3.3399998009417
57	287424 13300 842 186550 1.269559241551 34.569558173564 334 0.099987080748 0.100000084634 33.399999013453 3.3399998030265
56	300724 9038 1046 186748 1.299191202215 34.599190123805 334 2 2 668 1336
55	309762 9033 842 186550 1.269559241551 34.569558173564 334 2 2 668 1336
54	318795 468 5058 183524 2 34 33 0 0 0 0
53	319263 889 5058 183524 2 34 33 0.022755907483 0.026262189765 0.862757241761 0.022567901690601
52	320152 468 5058 183524 2 34 33 2 2 66 132
73	320620 10777 235 187056 1.11 34.61 336 -1.4873962129769 1.490649065558 -14.85165874815 508.54254635983
72	331397 10855 235 187056 1.11 34.61 336 -1.4629037321995 1.4323718936772 -8.4067850154568 354.03284069318
71	342252 7104 235 187056 1.11 34.61 336 36.55 36.55 12280.8 448863.24
70	349356 10431 235 187056 1.11 34.61 336 139.51262168884 1539.9259636179 282426.54863544 292568977.41773
69	359787 10434 235 187056 1.11 34.61 336 40.386146088838 43.611293615819 14045.51576392 587370.23466314
67	370221 11393 235 187056 1.11 34.61 336 -0.037916122811858 0.029305423243315 -0.32482712084711 0.12935053712387
66	381614 10419 235 187056 1.11 34.61 336 19.934505787024 20.063152402204 6715.7594176992 134230.72815021
68	392033 5760 235 187056 1.11 34.61 336 3 3 1008 3024
80	397793 13306 1180 186883 1.300212602492 34.60021139128 334 0.099987080261 0.100000084647 33.399998870228 3.3399997743815
79	411099 13313 848 186556 1.269559321606 34.569558253494 334 0.099987080752 0.100000084634 33.399999013328 3.3399998030015
78	424412 9042 1180 186883 1.300212602492 34.60021139128 334 3 3 1002 3006
77	433454 9040 848 186556 1.269559321606 34.569558253494 334 3 3 1002 3006
76	442494 468 5059 183525 2 34 33 0 0 0 0
75	442962 891 5059 183525 2 34 33 0.022754827428 0.026262189643 0.862756161755 0.022567852539073
74	443853 468 5059 183525 2 34 33 3 3 99 297
117	444321 10643 237 187058 1.11 34.61 336 -1.5013449392451 8.474889519637 58.425374172119 599.88037119855
116	454964 11183 237 187058 1.11 34.61 336 -1.4475786669514 1.499480307632 48.872819326272 376.85313089295
115	466147 7440 237 187058 1.11 34.61 336 36.55 36.55 12280.8 448863.24
114	473587 10757 237 187058 1.11 34.61 336 91.51262550354 1498.758411137 266373.94316297 266449429.81026
113	484344 10758 237 187058 1.11 34.61 336 40.40252631749 46.511851137126 14115.827966735 593475.92892436
111	495102 11631 237 187058 1.11 34.61 336 -0.017645301461975 5.2829790165018 133.18543830387 479.97474317019
110	506733 10753 237 187058 1.11 34.61 336 19.981573350473 33.12805176497 6939.4828580242 144971.17386337
112	517486 6096 237 187058 1.11 34.61 336 5 5 1680 8400
124	523582 13618 1112 186826 1.299591442381 34.599603341426 334 0.099987042959 0.10001293647 33.400011980485 3.3400023966012
123	537200 13636 860 186568 1.269559481717 34.569558391747 334 0.099987080751 0.100000084639 33.39999899147 3.3399997986299
122	550836 9368 1112 186826 1.299591442381 34.599603341426 334 5 5 1670 8350
121	560204 9360 860 186568 1.269559481717 34.569558391747 334 5 5 1670 8350
120	569564 501 5061 183527 2 34 33 0 0 0 0
119	570065 921 5061 183527 2 34 33 0.022754667317 0.026262189611 0.862756014478 0.022567845926282
118	570986 501 5061 183527 2 34 33 5 5 165 825
139	571487 10916 238 187059 1.11 34.61 336 -1.4835635202841 1.5 24.921731567379 468.81193563222
138	582403 11192 238 187059 1.11 34.61 336 -1.4515357189303 1.4519300049145 23.588313425402 333.52852652178
137	593595 7440 238 187059 1.11 34.61 336 36.55 36.55 12280.8 448863.24
136	601035 10762 238 187059 1.11 34.61 336 67.51262550354 1471.0924393987 258264.27858749 253726015.42515
135	611797 10775 238 187059 1.11 34.61 336 40.393015078346 44.010596864663 14078.288270236 590167.66924629
133	622572 11605 238 187059 1.11 34.61 336 -0.042667074232519 2.4894959984242 37.050968305414 54.485087655066
132	634177 10723 238 187059 1.11 34.61 336 19.964643182015 23.615946652842 6764.9137815504 136286.75202783
134	644900 6096 238 187059 1.11 34.61 336 6 6 2016 12096
146	650996 13642 1249 186952 1.305604842658 34.605616621176 334 0.099987081777 0.100000084654 33.400011859958 3.3400023721606
145	664638 13630 866 186574 1.269559561772 34.569558483615 334 0.099987080748 0.100000084639 33.399999003283 3.3399998009925
144	678268 9379 1249 186952 1.305604842658 34.605616621176 334 6 6 2004 12024
143	687647 9358 866 186574 1.269559561772 34.569558483615 334 6 6 2004 12024
142	697005 501 5062 183528 2 34 33 0 0 0 0
141	697506 924 5062 183528 2 34 33 0.022755587261 0.026262189691 0.862756926785 0.022567887392231
140	698430 501 5062 183528 2 34 33 6 6 198 1188
161	698931 10957 239 187060 1.11 34.61 336 -1.5023459449205 1.5178913486357 8.0947207447386 487.13027820555
160	709888 11231 239 187060 1.11 34.61 336 -1.4499547048644 1.4406058647104 8.9079504607483 327.21319867665
159	721119 7440 239 187060 1.11 34.61 336 36.55 36.55 12280.8 448863.24
158	728559 10765 239 187060 1.11 34.61 336 43.512624549866 1445.5406491117 250188.21724193 241488896.18955
157	739324 10764 239 187060 1.11 34.61 336 40.396322122342 43.5964093867 14062.260664886 588780.63259157
155	750088 11960 239 187060 1.11 34.61 336 -0.0047267571525467 1.4373836630453 15.791722216127 14.961874997745
154	762048 10753 239 187060 1.11 34.61 336 19.977559493227 21.522966088188 6731.7407934547 134880.8662683
156	772801 6096 239 187060 1.11 34.61 336 7 7 2352 16464
168	778897 13644 980 186682 1.292108801938 34.592107738783 334 0.09998708144 0.100000084639 33.399999018285 3.3399998039928
167	792541 13643 872 186580 1.269559641828 34.569558568608 334 0.09998708075 0.100000084639 33.39999900822 3.3399998019799
166	806184 9377 980 186682 1.292108801938 34.592107738783 334 7 7 2338 16366
165	815561 9380 872 186580 1.269559641828 34.569558568608 334 7 7 2338 16366
164	824941 501 5063 183529 2 34 33 0 0 0 0
163	825442 922 5063 183529 2 34 33 0.022755507206 0.026262189656 0.862756844106 0.022567883611079
162	826364 501 5063 183529 2 34 33 7 7 231 1617
88	826865 10419 236 187061 1.11 34.61 337 0 20.029757187204 6426.5288585051 126024.46997519
89	837284 11520 236 187061 1.11 34.61 337 -10.95828216081 0.010595943120414 -215.39707003934 1439.1757783667
90	848804 5778 236 187061 1.11 34.61 337 4 4 1348 5392
91	854582 10466 236 187061 1.11 34.61 337 40.396385950857 51.819830153627 14301.858449802 608513.36786134
92	865048 10453 236 187061 1.11 34.61 337 115.51262168884 1535.9926224823 276196.10285653 282443165.98349
93	875501 7126 236 187061 1.11 34.61 337 36.55 36.55 12317.35 450199.1425
94	882627 10846 236 187061 1.11 34.61 337 -1.4535830346176 2.4999999999999 105.02146101351 586.20743766818
95	893473 10785 236 187061 1.11 34.61 337 -1.4832319675728 15.597287810174 590.97801127605 8425.0626866689
96	904258 468 5060 183526 2 34 33 4 4 132 528
97	904726 889 5060 183526 2 34 33 0.022755747372 0.026262189601 0.862757128416 0.022567896858871
98	905615 468 5060 183526 2 34 33 0 0 0 0
99	906083 9038 854 186562 1.269559401662 34.56955826843 334 4 4 1336 5344
100	915121 9367 1312 187015 1.306018002769 34.606107679969 334 4 4 1336 5344
101	924488 13646 854 186562 1.269559401662 34.56955826843 334 0.099987080753 0.100000084636 33.399998948208 3.3399997899775
102	938134 13636 1312 187015 1.306018002769 34.606107679969 334 0.099909032171 0.10009108144 33.40002475864 3.340005532394
