file 1680022 1512143204                                         
version 2
run SinusoidalAccInjectionAttack-65-20171201-16:46:14-102338
attr CACCSpacing 20
attr attackAcc -10
attr attackPos 7
attr attackSpeed 150
attr attackStart 30
attr attacker 4
attr beaconInterval 0.1
attr configname SinusoidalAccInjectionAttack
attr controller 1
attr datetime 20171201-16:46:14
attr experiment SinusoidalAccInjectionAttack
attr fakeAcc "(4 == 4)"
attr fakePos "(4 == 2)"
attr fakeSpeed "(4 == 3)"
attr inifile omnetpp_65.ini
attr iterationvars "$attacker=4, $attackSpeed=150, $attackPos=7, $attackAcc=-10, $leaderSpeed=50, $controller=1, $CACCSpacing=20, $sController=\"CACC\", $attackStart=30, $0=20, $1=0, $nCars=8, $platoonSize=8, $nLanes=1, $beaconInterval=0.1, $priority=2, $packetSize=200, $ploegH=0.5, $leaderHeadway=1.2, $fakeSpeed=(4 == 3), $fakeAcc=(4 == 4), $fakePos=(4 == 2)"
attr iterationvarsf attacker=4,attackSpeed=150,attackPos=7,attackAcc=-10,leaderSpeed=50,controller=1,CACCSpacing=20,sController=CACC,attackStart=30,20,0,nCars=8,platoonSize=8,nLanes=1,beaconInterval=0.1,priority=2,packetSize=200,ploegH=0.5,leaderHeadway=1.2,fakeSpeed=(4_==_3),fakeAcc=(4_==_4),fakePos=(4_==_2)-
attr leaderHeadway 1.2
attr leaderSpeed 50
attr measurement "$attacker=4, $attackSpeed=150, $attackPos=7, $attackAcc=-10, $leaderSpeed=50, $controller=1, $CACCSpacing=20, $sController=\"CACC\", $attackStart=30, $0=20, $1=0, $nCars=8, $platoonSize=8, $nLanes=1, $beaconInterval=0.1, $priority=2, $packetSize=200, $ploegH=0.5, $leaderHeadway=1.2, $fakeSpeed=(4 == 3), $fakeAcc=(4 == 4), $fakePos=(4 == 2)"
attr nCars 8
attr nLanes 1
attr network scenario
attr packetSize 200
attr platoonSize 8
attr ploegH 0.5
attr priority 2
attr processid 102338
attr repetition 0
attr replication #0
attr resultdir results
attr runnumber 65
attr sController "\"CACC\""
attr seedset 0
param **.coreDebug false
param **.debug false
param **.headway 0.1s
param **.numberOfCars 8
param **.numberOfCarsPerPlatoon 8
param **.numberOfLanes 1
param **.numericController 1
param **.traffic.nCars 8
param **.traffic.nLanes 1
param **.traffic.platoonInsertDistance 20m
param **.traffic.platoonInsertHeadway 0s
param **.traffic.platoonInsertSpeed 50kmph
param **.traffic.platoonInsertTime "1 s"
param **.traffic.platoonLeaderHeadway 1.2s
param **.traffic.platoonSize 8
param **.traffic.platooningVType "\"vtypeauto\""
param **.traffic_type "\"PlatoonsTrafficManager\""
param *.**.nic.mac1609_4.bitrate 6Mbps
param *.**.nic.mac1609_4.txPower 100mW
param *.**.nic.mac1609_4.useServiceChannel false
param *.**.nic.phy80211p.analogueModels "xmldoc(\"config.xml\")"
param *.**.nic.phy80211p.decider "xmldoc(\"config.xml\")"
param *.**.nic.phy80211p.maxTXPower 100mW
param *.**.nic.phy80211p.sensitivity -94dBm
param *.**.nic.phy80211p.thermalNoise -95dBm
param *.**.nic.phy80211p.usePropagationDelay true
param *.**.nic.phy80211p.useThermalNoise true
param *.annotations.draw false
param *.connectionManager.alpha 2.0
param *.connectionManager.carrierFrequency "5.890e9 Hz"
param *.connectionManager.pMax 100mW
param *.connectionManager.sat -94dBm
param *.connectionManager.sendDirect true
param *.manager.autoShutdown true
param *.manager.commandLine "\"sumo --remote-port $port --seed $seed --configuration-file $configFile\""
param *.manager.configFile "\"./sumocfg/freeway.sumo.cfg\""
param *.manager.host "\"localhost\""
param *.manager.margin 25
param *.manager.moduleDisplayString "\"\""
param *.manager.moduleName "\"node\""
param *.manager.moduleType "\"Car\""
param *.manager.updateInterval 0.01s
param *.node[*].appl.attackStart 30s
param *.node[*].appl.attackerType 4
param *.node[*].appl.simulationDuration "60 s"
param *.node[*].appl_type "\"SimplePlatooningApp\""
param *.node[*].helper.nCars 8
param *.node[*].helper.nLanes 1
param *.node[*].helper.platoonSize 8
param *.node[*].helper_type "\"PositionHelper\""
param *.node[*].mobility.x 0
param *.node[*].mobility.y 0
param *.node[*].mobility.z 1.895
param *.node[*].prot.attackStart 30s
param *.node[*].prot.attackerType 4
param *.node[*].prot.attackingNode 3
param *.node[*].prot.beaconingInterval 0.1s
param *.node[*].prot.fakeAcc "(4 == 4)"
param *.node[*].prot.fakePos "(4 == 2)"
param *.node[*].prot.fakeSpeed "(4 == 3)"
param *.node[*].prot.maliciousAcc "-10 mpss"
param *.node[*].prot.maliciousSpeed 150kmph
param *.node[*].prot.packetSize 200
param *.node[*].prot.priority 2
param *.node[*].prot.shiftX "7 m"
param *.node[*].prot.useControllerAcceleration true
param *.node[*].protocol_type "\"SimplePlatooningBeaconing\""
param *.node[*].scenario.accHeadway 0.1s
param *.node[*].scenario.caccC1 0.5
param *.node[*].scenario.caccOmegaN "0.2 Hz"
param *.node[*].scenario.caccSpacing 20m
param *.node[*].scenario.caccXi 1
param *.node[*].scenario.controller "\"CACC\""
param *.node[*].scenario.engineTau "0.5 s"
param *.node[*].scenario.leaderHeadway 1.2s
param *.node[*].scenario.leaderSpeed 50kmph
param *.node[*].scenario.ploegH 0.5s
param *.node[*].scenario.ploegKd 0.7
param *.node[*].scenario.ploegKp 0.2
param *.node[*].scenario.useRealisticEngine false
param *.node[*].scenario_type "\"SinusoidalScenario\""
param *.node[*].unicast.packetLossRate 0
param *.obstacles.debug false
param *.playgroundSizeX 65000m
param *.playgroundSizeY 25000m
param *.playgroundSizeZ 50m
param *.world.use2D false
param *.world.useTorus false

vector 0  scenario.node[0].appl  distance  ETV
vector 1  scenario.node[0].appl  relativeSpeed  ETV
vector 2  scenario.node[0].appl  nodeId  ETV
vector 6  scenario.node[0].appl  acceleration  ETV
vector 7  scenario.node[0].appl  controllerAcceleration  ETV
vector 3  scenario.node[0].appl  speed  ETV
vector 4  scenario.node[0].appl  posx  ETV
vector 5  scenario.node[0].appl  posy  ETV
vector 22  scenario.node[1].appl  distance  ETV
vector 23  scenario.node[1].appl  relativeSpeed  ETV
vector 24  scenario.node[1].appl  nodeId  ETV
vector 28  scenario.node[1].appl  acceleration  ETV
vector 29  scenario.node[1].appl  controllerAcceleration  ETV
vector 25  scenario.node[1].appl  speed  ETV
vector 26  scenario.node[1].appl  posx  ETV
vector 27  scenario.node[1].appl  posy  ETV
vector 44  scenario.node[2].appl  distance  ETV
vector 45  scenario.node[2].appl  relativeSpeed  ETV
vector 46  scenario.node[2].appl  nodeId  ETV
vector 50  scenario.node[2].appl  acceleration  ETV
vector 51  scenario.node[2].appl  controllerAcceleration  ETV
vector 47  scenario.node[2].appl  speed  ETV
vector 48  scenario.node[2].appl  posx  ETV
vector 49  scenario.node[2].appl  posy  ETV
vector 66  scenario.node[3].appl  distance  ETV
vector 67  scenario.node[3].appl  relativeSpeed  ETV
vector 68  scenario.node[3].appl  nodeId  ETV
vector 72  scenario.node[3].appl  acceleration  ETV
vector 73  scenario.node[3].appl  controllerAcceleration  ETV
vector 69  scenario.node[3].appl  speed  ETV
vector 70  scenario.node[3].appl  posx  ETV
vector 71  scenario.node[3].appl  posy  ETV
vector 88  scenario.node[4].appl  distance  ETV
vector 89  scenario.node[4].appl  relativeSpeed  ETV
vector 90  scenario.node[4].appl  nodeId  ETV
vector 94  scenario.node[4].appl  acceleration  ETV
vector 95  scenario.node[4].appl  controllerAcceleration  ETV
vector 91  scenario.node[4].appl  speed  ETV
vector 92  scenario.node[4].appl  posx  ETV
vector 93  scenario.node[4].appl  posy  ETV
vector 110  scenario.node[5].appl  distance  ETV
vector 111  scenario.node[5].appl  relativeSpeed  ETV
vector 112  scenario.node[5].appl  nodeId  ETV
vector 116  scenario.node[5].appl  acceleration  ETV
vector 117  scenario.node[5].appl  controllerAcceleration  ETV
vector 113  scenario.node[5].appl  speed  ETV
vector 114  scenario.node[5].appl  posx  ETV
vector 115  scenario.node[5].appl  posy  ETV
vector 132  scenario.node[6].appl  distance  ETV
vector 133  scenario.node[6].appl  relativeSpeed  ETV
vector 134  scenario.node[6].appl  nodeId  ETV
vector 138  scenario.node[6].appl  acceleration  ETV
vector 139  scenario.node[6].appl  controllerAcceleration  ETV
vector 135  scenario.node[6].appl  speed  ETV
vector 136  scenario.node[6].appl  posx  ETV
vector 137  scenario.node[6].appl  posy  ETV
vector 154  scenario.node[7].appl  distance  ETV
vector 155  scenario.node[7].appl  relativeSpeed  ETV
vector 156  scenario.node[7].appl  nodeId  ETV
vector 160  scenario.node[7].appl  acceleration  ETV
vector 161  scenario.node[7].appl  controllerAcceleration  ETV
vector 157  scenario.node[7].appl  speed  ETV
vector 158  scenario.node[7].appl  posx  ETV
vector 159  scenario.node[7].appl  posy  ETV
vector 80  scenario.node[3].prot  frontDelay  ETV
vector 78  scenario.node[3].prot  frontDelayId  ETV
vector 58  scenario.node[2].prot  frontDelay  ETV
vector 56  scenario.node[2].prot  frontDelayId  ETV
vector 168  scenario.node[7].prot  frontDelay  ETV
vector 166  scenario.node[7].prot  frontDelayId  ETV
vector 35  scenario.node[1].prot  leaderDelay  ETV
vector 33  scenario.node[1].prot  leaderDelayId  ETV
vector 36  scenario.node[1].prot  frontDelay  ETV
vector 34  scenario.node[1].prot  frontDelayId  ETV
vector 57  scenario.node[2].prot  leaderDelay  ETV
vector 55  scenario.node[2].prot  leaderDelayId  ETV
vector 79  scenario.node[3].prot  leaderDelay  ETV
vector 77  scenario.node[3].prot  leaderDelayId  ETV
vector 101  scenario.node[4].prot  leaderDelay  ETV
vector 99  scenario.node[4].prot  leaderDelayId  ETV
vector 123  scenario.node[5].prot  leaderDelay  ETV
vector 121  scenario.node[5].prot  leaderDelayId  ETV
vector 145  scenario.node[6].prot  leaderDelay  ETV
vector 143  scenario.node[6].prot  leaderDelayId  ETV
vector 167  scenario.node[7].prot  leaderDelay  ETV
vector 165  scenario.node[7].prot  leaderDelayId  ETV
vector 124  scenario.node[5].prot  frontDelay  ETV
vector 122  scenario.node[5].prot  frontDelayId  ETV
vector 102  scenario.node[4].prot  frontDelay  ETV
vector 100  scenario.node[4].prot  frontDelayId  ETV
vector 146  scenario.node[6].prot  frontDelay  ETV
vector 144  scenario.node[6].prot  frontDelayId  ETV
vector 8  scenario.node[0].prot  nodeId  ETV
vector 9  scenario.node[0].prot  busyTime  ETV
vector 10  scenario.node[0].prot  collisions  ETV
vector 30  scenario.node[1].prot  nodeId  ETV
vector 31  scenario.node[1].prot  busyTime  ETV
vector 32  scenario.node[1].prot  collisions  ETV
vector 52  scenario.node[2].prot  nodeId  ETV
vector 53  scenario.node[2].prot  busyTime  ETV
vector 54  scenario.node[2].prot  collisions  ETV
vector 74  scenario.node[3].prot  nodeId  ETV
vector 75  scenario.node[3].prot  busyTime  ETV
vector 76  scenario.node[3].prot  collisions  ETV
vector 96  scenario.node[4].prot  nodeId  ETV
vector 97  scenario.node[4].prot  busyTime  ETV
vector 98  scenario.node[4].prot  collisions  ETV
vector 118  scenario.node[5].prot  nodeId  ETV
vector 119  scenario.node[5].prot  busyTime  ETV
vector 120  scenario.node[5].prot  collisions  ETV
vector 140  scenario.node[6].prot  nodeId  ETV
vector 141  scenario.node[6].prot  busyTime  ETV
vector 142  scenario.node[6].prot  collisions  ETV
vector 162  scenario.node[7].prot  nodeId  ETV
vector 163  scenario.node[7].prot  busyTime  ETV
vector 164  scenario.node[7].prot  collisions  ETV
7	11084 13860 232 328174 1.11 59.91 589 -1.5 1.5 -14.445969899918 993.24092361736
6	24944 18587 232 328174 1.11 59.91 589 -1.472274679513 1.4513434175798 -12.507264912644 675.29835211523
5	43531 12081 232 328174 1.11 59.91 589 36.55 36.55 21527.95 786846.5725
4	55612 17903 232 328174 1.11 59.91 589 202.82875404345 1023.8115525414 362065.33926911 255614216.33862
3	73515 17901 232 328174 1.11 59.91 589 12.599076970844 15.853603639796 8223.2832500118 115251.79065057
1	91416 9725 232 328174 1.11 59.91 589 0 0 0 0
0	101141 10314 232 328174 1.11 59.91 589 -1 -1 -589 589
2	111455 9725 232 328174 1.11 59.91 589 0 0 0 0
10	121180 858 5102 328596 2 60 59 0 0 0 0
9	122038 1154 5102 328596 2 60 59 0.022969 0.02625 1.545469 0.040493199961
8	123192 799 5102 328596 2 60 59 0 0 0 0
29	123991 17348 233 328175 1.11 59.91 589 -1.5112642289108 1.512070130455 -15.602435164616 992.06669154354
28	141339 19170 233 328175 1.11 59.91 589 -1.482030289071 1.4492283742985 -12.203154642091 674.69257799136
27	160509 12670 233 328175 1.11 59.91 589 36.55 36.55 21527.95 786846.5725
26	173179 18504 233 328175 1.11 59.91 589 178.82875404358 999.78536410703 347893.68212383 238523728.16531
25	191683 18508 233 328175 1.11 59.91 589 12.596070946852 15.852538032929 8223.0344689963 115244.50944486
23	210191 20104 233 328175 1.11 59.91 589 -0.07351215029812 0.077026299357145 0.37385366460321 1.7619270286741
22	230295 18498 233 328175 1.11 59.91 589 19.939712269083 20.179296883774 11815.652169654 237030.40870335
24	248793 10314 233 328175 1.11 59.91 589 1 1 589 589
36	259107 23680 1032 328418 1.254913282269 59.954927741775 588 0.099897340276 0.100093483072 58.800027701056 5.8800065875069
35	282787 23680 1032 328418 1.254913282269 59.954927741775 588 0.099897340276 0.100093483072 58.800027701056 5.8800065875069
34	306467 16121 1032 328418 1.254913282269 59.954927741775 588 1 1 588 588
33	322588 16121 1032 328418 1.254913282269 59.954927741775 588 1 1 588 588
32	338709 858 5103 328597 2 60 59 0 0 0 0
31	339567 1213 5103 328597 2 60 59 0.022969 0.02625 1.545469 0.040493199961
30	340780 858 5103 328597 2 60 59 1 1 59 59
51	341638 19073 234 328176 1.11 59.91 589 -1.4951715933761 1.4969403168635 -15.575003560276 971.91297365984
50	360711 19169 234 328176 1.11 59.91 589 -1.4749478834394 1.4483793291777 -11.883488416087 671.91386143747
49	379880 12670 234 328176 1.11 59.91 589 36.55 36.55 21527.95 786846.5725
48	392550 18490 234 328176 1.11 59.91 589 154.82875404358 975.86122945313 333770.61897068 222183081.39016
47	411040 18494 234 328176 1.11 59.91 589 12.599772593804 15.849534689697 8223.8035252938 115263.673765
45	429534 20100 234 328176 1.11 59.91 589 -0.042015735458428 0.035321629897977 -0.64702475104455 0.40721633988919
44	449634 18478 234 328176 1.11 59.91 589 19.918027116731 20.070368602191 11767.078534275 235084.12579497
46	468112 10314 234 328176 1.11 59.91 589 2 2 1178 2356
58	478426 23629 900 328280 1.22965940166 59.929660085725 588 0.099987240007 0.100002557067 58.800000925615 5.8800001911366
57	502055 23666 1038 328424 1.254913362325 59.954927821574 588 0.099897340291 0.100093483085 58.800027700799 5.8800065874555
56	525721 16088 900 328280 1.22965940166 59.929660085725 588 2 2 1176 2352
55	541809 16114 1038 328424 1.254913362325 59.954927821574 588 2 2 1176 2352
54	557923 858 5104 328598 2 60 59 0 0 0 0
53	558781 1213 5104 328598 2 60 59 0.022969 0.02625 1.545469 0.040493199961
52	559994 858 5104 328598 2 60 59 2 2 118 236
73	560852 19063 235 328177 1.11 59.91 589 -1.4890347545755 1.489280983621 -15.518613997603 946.30555363112
72	579915 19164 235 328177 1.11 59.91 589 -1.4633940821509 1.4358250214173 -11.63584564472 660.0835474942
71	599079 12670 235 328177 1.11 59.91 589 36.55 36.55 21527.95 786846.5725
70	611749 18495 235 328177 1.11 59.91 589 130.82875404358 951.87890832933 319636.07115502 206503404.98796
69	630244 18495 235 328177 1.11 59.91 589 12.612563444857 15.839370548536 8223.9892255131 115261.40203911
67	648739 20358 235 328177 1.11 59.91 589 -0.022576862845417 0.018794908418132 -0.066865335200474 0.075435323579699
66	669097 18457 235 328177 1.11 59.91 589 19.965709014146 20.045084661091 11778.551529667 235542.25214169
68	687554 10314 235 328177 1.11 59.91 589 3 3 1767 5301
80	697868 23664 832 328218 1.213906321605 59.913907006118 588 0.099987241264 0.10000255708 58.800000926063 5.8800001912424
79	721532 23622 1044 328430 1.25491344238 59.954927901567 588 0.0998973403 0.100093483096 58.800027700737 5.8800065874431
78	745154 16122 832 328218 1.213906321605 59.913907006118 588 3 3 1764 5292
77	761276 16077 1044 328430 1.25491344238 59.954927901567 588 3 3 1764 5292
76	777353 858 5105 328599 2 60 59 0 0 0 0
75	778211 1213 5105 328599 2 60 59 0.022968 0.02625 1.545468 0.040493154024
74	779424 858 5105 328599 2 60 59 3 3 177 531
95	780282 19138 236 328178 1.11 59.91 589 -4.3354969883504 1.5 -7.7260582142395 782.83616509862
94	799420 19246 236 328178 1.11 59.91 589 -3.1934530119031 1.4260514181192 -8.0672363721006 608.10935062261
93	818666 12670 236 328178 1.11 59.91 589 36.55 36.55 21527.95 786846.5725
92	831336 18507 236 328178 1.11 59.91 589 106.82875404358 805.05603828617 280189.8247734 154996594.43703
91	849843 18496 236 328178 1.11 59.91 589 3.4549706911437 15.82734885459 6995.8798234637 89141.639101182
89	868339 19563 236 328178 1.11 59.91 589 -0.32006895065049 9.6568367853898 1228.2257605059 8321.0471854414
88	887902 18472 236 328178 1.11 59.91 589 19.984401978425 142.91675702058 37065.684193579 3851347.9843177
90	906374 10314 236 328178 1.11 59.91 589 4 4 2356 9424
102	916688 24253 1246 328653 1.303564162878 60.003553772551 588 0.09998724155 0.100002556711 58.799989851223 5.8799979763887
101	940941 24268 1050 328436 1.254913522436 59.954928391269 588 0.09989734221 0.100093483481 58.800028110383 5.8800066693723
100	965209 16701 1246 328653 1.303564162878 60.003553772551 588 4 4 2352 9408
99	981910 16127 1050 328436 1.254913522436 59.954928391269 588 4 4 2352 9408
98	998037 858 5106 328600 2 60 59 0 0 0 0
97	998895 1213 5106 328600 2 60 59 0.022969 0.02625 1.545469 0.040493199961
96	1000108 858 5106 328600 2 60 59 4 4 236 944
117	1000966 19755 237 328179 1.11 59.91 589 -2.4357573677656 1.6337461325466 -17.605162409058 802.9122538946
116	1020721 19866 237 328179 1.11 59.91 589 -2.0733442489725 1.5658228810008 -15.520668527027 578.27877064952
115	1040587 13259 237 328179 1.11 59.91 589 36.55 36.55 21527.95 786846.5725
114	1053846 19086 237 328179 1.11 59.91 589 82.828754043579 783.7027565719 268986.16327777 145373022.18575
113	1072932 19088 237 328179 1.11 59.91 589 5.4649687680892 15.819490735852 7022.0889658202 88390.024627595
111	1092020 20200 237 328179 1.11 59.91 589 -3.705367249496 1.4858114080661 -26.128469992803 609.06147274517
110	1112220 19072 237 328179 1.11 59.91 589 1.9122512609276 20.032942247066 8848.1856784826 155824.58974574
112	1131292 10903 237 328179 1.11 59.91 589 5 5 2945 14725
124	1142195 24242 1172 328552 1.265750082823 59.965751864567 588 0.099987240401 0.100002559064 58.800002023294 5.8800004106621
123	1166437 24244 1056 328442 1.254913602491 59.954928462594 588 0.099897342403 0.100093483504 58.800028101653 5.8800066676263
122	1190681 16709 1172 328552 1.265750082823 59.965751864567 588 5 5 2940 14700
121	1207390 16699 1056 328442 1.254913602491 59.954928462594 588 5 5 2940 14700
120	1224089 917 5107 328601 2 60 59 0 0 0 0
119	1225006 1272 5107 328601 2 60 59 0.022968 0.02625 1.545468 0.040493154024
118	1226278 917 5107 328601 2 60 59 5 5 295 1475
139	1227195 19721 238 328180 1.11 59.91 589 -2.421554552832 1.7009039231792 -23.814298397003 862.51984070368
138	1246916 19843 238 328180 1.11 59.91 589 -2.1833241709755 1.6255084476182 -21.577693523092 623.00800401926
137	1266759 13259 238 328180 1.11 59.91 589 36.55 36.55 21527.95 786846.5725
136	1280018 19082 238 328180 1.11 59.91 589 58.828754043579 763.63622325139 257649.76772253 136145238.80173
135	1299100 19070 238 328180 1.11 59.91 589 6.1573216112222 15.824750849195 7061.2119258409 88538.178436663
133	1318170 20349 238 328180 1.11 59.91 589 -2.3398562049311 1.0099524086778 -38.967753335443 354.14703365189
132	1338519 19070 238 328180 1.11 59.91 589 4.7384844779714 20.011817445354 8981.178014432 155936.96936904
134	1357589 10903 238 328180 1.11 59.91 589 6 6 3534 21204
146	1368492 24269 1312 328701 1.305160322989 60.005162911115 588 0.099987240083 0.100002559037 58.800002829676 5.8800005719479
145	1392761 24242 1062 328448 1.254913682546 59.95492852961 588 0.099897342402 0.100093483633 58.800028088614 5.8800066650185
144	1417003 16721 1312 328701 1.305160322989 60.005162911115 588 6 6 3528 21168
143	1433724 16710 1062 328448 1.254913682546 59.95492852961 588 6 6 3528 21168
142	1450434 917 5108 328602 2 60 59 0 0 0 0
141	1451351 1272 5108 328602 2 60 59 0.022969 0.02625 1.545469 0.040493199961
140	1452623 917 5108 328602 2 60 59 6 6 354 2124
161	1453540 19692 239 328181 1.11 59.91 589 -2.252885745894 1.729511293494 -29.813318310866 938.0521988858
160	1473232 19801 239 328181 1.11 59.91 589 -2.1323749837476 1.6347269006381 -27.120652562168 652.78655033755
159	1493033 13259 239 328181 1.11 59.91 589 36.55 36.55 21527.95 786846.5725
158	1506292 19086 239 328181 1.11 59.91 589 34.82875213623 744.88135659127 246152.12489691 127269608.28826
157	1525378 19083 239 328181 1.11 59.91 589 6.8990894962782 15.829356398145 7113.4700769079 89296.901662949
155	1544461 20525 239 328181 1.11 59.91 589 -1.6141513989328 0.74232045310018 -52.042374131766 227.98601725789
154	1564986 19085 239 328181 1.11 59.91 589 6.1877959069177 20.027111120484 9142.6879886445 158343.55981981
156	1584071 10903 239 328181 1.11 59.91 589 7 7 4123 28861
168	1594974 24264 975 328355 1.254434801937 59.954435856297 588 0.099987240242 0.10000255758 58.80000129591 5.8800002652047
167	1619238 24246 1068 328454 1.254913762602 59.954928592243 588 0.099897342249 0.100093483811 58.800028071191 5.880006661534
166	1643484 16724 975 328355 1.254434801937 59.954435856297 588 7 7 4116 28812
165	1660208 16708 1068 328454 1.254913762602 59.954928592243 588 7 7 4116 28812
164	1676916 917 5109 328603 2 60 59 0 0 0 0
163	1677833 1272 5109 328603 2 60 59 0.022969 0.02625 1.545469 0.040493199961
162	1679105 917 5109 328603 2 60 59 7 7 413 2891
