file 893604 1512144334                                          
version 2
run SinusoidalAccInjectionAttack-284-20171201-17:05:18-92529
attr CACCSpacing 5
attr attackAcc 30
attr attackPos 7
attr attackSpeed 150
attr attackStart 30
attr attacker 4
attr beaconInterval 0.1
attr configname SinusoidalAccInjectionAttack
attr controller 1
attr datetime 20171201-17:05:18
attr experiment SinusoidalAccInjectionAttack
attr fakeAcc "(4 == 4)"
attr fakePos "(4 == 2)"
attr fakeSpeed "(4 == 3)"
attr inifile omnetpp_284.ini
attr iterationvars "$attacker=4, $attackSpeed=150, $attackPos=7, $attackAcc=30, $leaderSpeed=150, $controller=1, $CACCSpacing=5, $sController=\"CACC\", $attackStart=30, $0=5, $1=0, $nCars=8, $platoonSize=8, $nLanes=1, $beaconInterval=0.1, $priority=2, $packetSize=200, $ploegH=0.5, $leaderHeadway=1.2, $fakeSpeed=(4 == 3), $fakeAcc=(4 == 4), $fakePos=(4 == 2)"
attr iterationvarsf attacker=4,attackSpeed=150,attackPos=7,attackAcc=30,leaderSpeed=150,controller=1,CACCSpacing=5,sController=CACC,attackStart=30,5,0,nCars=8,platoonSize=8,nLanes=1,beaconInterval=0.1,priority=2,packetSize=200,ploegH=0.5,leaderHeadway=1.2,fakeSpeed=(4_==_3),fakeAcc=(4_==_4),fakePos=(4_==_2)-
attr leaderHeadway 1.2
attr leaderSpeed 150
attr measurement "$attacker=4, $attackSpeed=150, $attackPos=7, $attackAcc=30, $leaderSpeed=150, $controller=1, $CACCSpacing=5, $sController=\"CACC\", $attackStart=30, $0=5, $1=0, $nCars=8, $platoonSize=8, $nLanes=1, $beaconInterval=0.1, $priority=2, $packetSize=200, $ploegH=0.5, $leaderHeadway=1.2, $fakeSpeed=(4 == 3), $fakeAcc=(4 == 4), $fakePos=(4 == 2)"
attr nCars 8
attr nLanes 1
attr network scenario
attr packetSize 200
attr platoonSize 8
attr ploegH 0.5
attr priority 2
attr processid 92529
attr repetition 4
attr replication #4
attr resultdir results
attr runnumber 284
attr sController "\"CACC\""
attr seedset 4
param **.coreDebug false
param **.debug false
param **.headway 0.1s
param **.numberOfCars 8
param **.numberOfCarsPerPlatoon 8
param **.numberOfLanes 1
param **.numericController 1
param **.traffic.nCars 8
param **.traffic.nLanes 1
param **.traffic.platoonInsertDistance 5m
param **.traffic.platoonInsertHeadway 0s
param **.traffic.platoonInsertSpeed 150kmph
param **.traffic.platoonInsertTime "1 s"
param **.traffic.platoonLeaderHeadway 1.2s
param **.traffic.platoonSize 8
param **.traffic.platooningVType "\"vtypeauto\""
param **.traffic_type "\"PlatoonsTrafficManager\""
param *.**.nic.mac1609_4.bitrate 6Mbps
param *.**.nic.mac1609_4.txPower 100mW
param *.**.nic.mac1609_4.useServiceChannel false
param *.**.nic.phy80211p.analogueModels "xmldoc(\"config.xml\")"
param *.**.nic.phy80211p.decider "xmldoc(\"config.xml\")"
param *.**.nic.phy80211p.maxTXPower 100mW
param *.**.nic.phy80211p.sensitivity -94dBm
param *.**.nic.phy80211p.thermalNoise -95dBm
param *.**.nic.phy80211p.usePropagationDelay true
param *.**.nic.phy80211p.useThermalNoise true
param *.annotations.draw false
param *.connectionManager.alpha 2.0
param *.connectionManager.carrierFrequency "5.890e9 Hz"
param *.connectionManager.pMax 100mW
param *.connectionManager.sat -94dBm
param *.connectionManager.sendDirect true
param *.manager.autoShutdown true
param *.manager.commandLine "\"sumo --remote-port $port --seed $seed --configuration-file $configFile\""
param *.manager.configFile "\"./sumocfg/freeway.sumo.cfg\""
param *.manager.host "\"localhost\""
param *.manager.margin 25
param *.manager.moduleDisplayString "\"\""
param *.manager.moduleName "\"node\""
param *.manager.moduleType "\"Car\""
param *.manager.updateInterval 0.01s
param *.node[*].appl.attackStart 30s
param *.node[*].appl.attackerType 4
param *.node[*].appl.simulationDuration "60 s"
param *.node[*].appl_type "\"SimplePlatooningApp\""
param *.node[*].helper.nCars 8
param *.node[*].helper.nLanes 1
param *.node[*].helper.platoonSize 8
param *.node[*].helper_type "\"PositionHelper\""
param *.node[*].mobility.x 0
param *.node[*].mobility.y 0
param *.node[*].mobility.z 1.895
param *.node[*].prot.attackStart 30s
param *.node[*].prot.attackerType 4
param *.node[*].prot.attackingNode 3
param *.node[*].prot.beaconingInterval 0.1s
param *.node[*].prot.fakeAcc "(4 == 4)"
param *.node[*].prot.fakePos "(4 == 2)"
param *.node[*].prot.fakeSpeed "(4 == 3)"
param *.node[*].prot.maliciousAcc "30 mpss"
param *.node[*].prot.maliciousSpeed 150kmph
param *.node[*].prot.packetSize 200
param *.node[*].prot.priority 2
param *.node[*].prot.shiftX "7 m"
param *.node[*].prot.useControllerAcceleration true
param *.node[*].protocol_type "\"SimplePlatooningBeaconing\""
param *.node[*].scenario.accHeadway 0.1s
param *.node[*].scenario.caccC1 0.5
param *.node[*].scenario.caccOmegaN "0.2 Hz"
param *.node[*].scenario.caccSpacing 5m
param *.node[*].scenario.caccXi 1
param *.node[*].scenario.controller "\"CACC\""
param *.node[*].scenario.engineTau "0.5 s"
param *.node[*].scenario.leaderHeadway 1.2s
param *.node[*].scenario.leaderSpeed 150kmph
param *.node[*].scenario.ploegH 0.5s
param *.node[*].scenario.ploegKd 0.7
param *.node[*].scenario.ploegKp 0.2
param *.node[*].scenario.useRealisticEngine false
param *.node[*].scenario_type "\"SinusoidalScenario\""
param *.node[*].unicast.packetLossRate 0
param *.obstacles.debug false
param *.playgroundSizeX 65000m
param *.playgroundSizeY 25000m
param *.playgroundSizeZ 50m
param *.world.use2D false
param *.world.useTorus false

vector 0  scenario.node[0].appl  distance  ETV
vector 1  scenario.node[0].appl  relativeSpeed  ETV
vector 2  scenario.node[0].appl  nodeId  ETV
vector 6  scenario.node[0].appl  acceleration  ETV
vector 7  scenario.node[0].appl  controllerAcceleration  ETV
vector 3  scenario.node[0].appl  speed  ETV
vector 4  scenario.node[0].appl  posx  ETV
vector 5  scenario.node[0].appl  posy  ETV
vector 22  scenario.node[1].appl  distance  ETV
vector 23  scenario.node[1].appl  relativeSpeed  ETV
vector 24  scenario.node[1].appl  nodeId  ETV
vector 28  scenario.node[1].appl  acceleration  ETV
vector 29  scenario.node[1].appl  controllerAcceleration  ETV
vector 25  scenario.node[1].appl  speed  ETV
vector 26  scenario.node[1].appl  posx  ETV
vector 27  scenario.node[1].appl  posy  ETV
vector 44  scenario.node[2].appl  distance  ETV
vector 45  scenario.node[2].appl  relativeSpeed  ETV
vector 46  scenario.node[2].appl  nodeId  ETV
vector 50  scenario.node[2].appl  acceleration  ETV
vector 51  scenario.node[2].appl  controllerAcceleration  ETV
vector 47  scenario.node[2].appl  speed  ETV
vector 48  scenario.node[2].appl  posx  ETV
vector 49  scenario.node[2].appl  posy  ETV
vector 66  scenario.node[3].appl  distance  ETV
vector 67  scenario.node[3].appl  relativeSpeed  ETV
vector 68  scenario.node[3].appl  nodeId  ETV
vector 72  scenario.node[3].appl  acceleration  ETV
vector 73  scenario.node[3].appl  controllerAcceleration  ETV
vector 69  scenario.node[3].appl  speed  ETV
vector 70  scenario.node[3].appl  posx  ETV
vector 71  scenario.node[3].appl  posy  ETV
vector 88  scenario.node[4].appl  distance  ETV
vector 89  scenario.node[4].appl  relativeSpeed  ETV
vector 90  scenario.node[4].appl  nodeId  ETV
vector 94  scenario.node[4].appl  acceleration  ETV
vector 95  scenario.node[4].appl  controllerAcceleration  ETV
vector 91  scenario.node[4].appl  speed  ETV
vector 92  scenario.node[4].appl  posx  ETV
vector 93  scenario.node[4].appl  posy  ETV
vector 110  scenario.node[5].appl  distance  ETV
vector 111  scenario.node[5].appl  relativeSpeed  ETV
vector 112  scenario.node[5].appl  nodeId  ETV
vector 116  scenario.node[5].appl  acceleration  ETV
vector 117  scenario.node[5].appl  controllerAcceleration  ETV
vector 113  scenario.node[5].appl  speed  ETV
vector 114  scenario.node[5].appl  posx  ETV
vector 115  scenario.node[5].appl  posy  ETV
vector 132  scenario.node[6].appl  distance  ETV
vector 133  scenario.node[6].appl  relativeSpeed  ETV
vector 134  scenario.node[6].appl  nodeId  ETV
vector 138  scenario.node[6].appl  acceleration  ETV
vector 139  scenario.node[6].appl  controllerAcceleration  ETV
vector 135  scenario.node[6].appl  speed  ETV
vector 136  scenario.node[6].appl  posx  ETV
vector 137  scenario.node[6].appl  posy  ETV
vector 154  scenario.node[7].appl  distance  ETV
vector 155  scenario.node[7].appl  relativeSpeed  ETV
vector 156  scenario.node[7].appl  nodeId  ETV
vector 160  scenario.node[7].appl  acceleration  ETV
vector 161  scenario.node[7].appl  controllerAcceleration  ETV
vector 157  scenario.node[7].appl  speed  ETV
vector 158  scenario.node[7].appl  posx  ETV
vector 159  scenario.node[7].appl  posy  ETV
vector 102  scenario.node[4].prot  frontDelay  ETV
vector 100  scenario.node[4].prot  frontDelayId  ETV
vector 35  scenario.node[1].prot  leaderDelay  ETV
vector 33  scenario.node[1].prot  leaderDelayId  ETV
vector 36  scenario.node[1].prot  frontDelay  ETV
vector 34  scenario.node[1].prot  frontDelayId  ETV
vector 57  scenario.node[2].prot  leaderDelay  ETV
vector 55  scenario.node[2].prot  leaderDelayId  ETV
vector 79  scenario.node[3].prot  leaderDelay  ETV
vector 77  scenario.node[3].prot  leaderDelayId  ETV
vector 101  scenario.node[4].prot  leaderDelay  ETV
vector 99  scenario.node[4].prot  leaderDelayId  ETV
vector 123  scenario.node[5].prot  leaderDelay  ETV
vector 121  scenario.node[5].prot  leaderDelayId  ETV
vector 145  scenario.node[6].prot  leaderDelay  ETV
vector 143  scenario.node[6].prot  leaderDelayId  ETV
vector 167  scenario.node[7].prot  leaderDelay  ETV
vector 165  scenario.node[7].prot  leaderDelayId  ETV
vector 80  scenario.node[3].prot  frontDelay  ETV
vector 78  scenario.node[3].prot  frontDelayId  ETV
vector 146  scenario.node[6].prot  frontDelay  ETV
vector 144  scenario.node[6].prot  frontDelayId  ETV
vector 58  scenario.node[2].prot  frontDelay  ETV
vector 56  scenario.node[2].prot  frontDelayId  ETV
vector 124  scenario.node[5].prot  frontDelay  ETV
vector 122  scenario.node[5].prot  frontDelayId  ETV
vector 168  scenario.node[7].prot  frontDelay  ETV
vector 166  scenario.node[7].prot  frontDelayId  ETV
vector 8  scenario.node[0].prot  nodeId  ETV
vector 9  scenario.node[0].prot  busyTime  ETV
vector 10  scenario.node[0].prot  collisions  ETV
vector 30  scenario.node[1].prot  nodeId  ETV
vector 31  scenario.node[1].prot  busyTime  ETV
vector 32  scenario.node[1].prot  collisions  ETV
vector 52  scenario.node[2].prot  nodeId  ETV
vector 53  scenario.node[2].prot  busyTime  ETV
vector 54  scenario.node[2].prot  collisions  ETV
vector 74  scenario.node[3].prot  nodeId  ETV
vector 75  scenario.node[3].prot  busyTime  ETV
vector 76  scenario.node[3].prot  collisions  ETV
vector 96  scenario.node[4].prot  nodeId  ETV
vector 97  scenario.node[4].prot  busyTime  ETV
vector 98  scenario.node[4].prot  collisions  ETV
vector 118  scenario.node[5].prot  nodeId  ETV
vector 119  scenario.node[5].prot  busyTime  ETV
vector 120  scenario.node[5].prot  collisions  ETV
vector 140  scenario.node[6].prot  nodeId  ETV
vector 141  scenario.node[6].prot  busyTime  ETV
vector 142  scenario.node[6].prot  collisions  ETV
vector 162  scenario.node[7].prot  nodeId  ETV
vector 163  scenario.node[7].prot  busyTime  ETV
vector 164  scenario.node[7].prot  collisions  ETV
7	11077 7542 232 175340 1.11 32.51 315 -1.5 1.5 13.746014552298 493.8098403155
6	18619 9872 232 175340 1.11 32.51 315 -1.4722746794739 1.4513407705138 12.847972104927 335.54193363446
5	28491 6327 232 175340 1.11 32.51 315 36.55 36.55 11513.25 420809.2875
4	34818 9452 232 175340 1.11 32.51 315 113.44186668356 1425.5800405273 242776.75229355 232594082.67884
3	44270 9428 232 175340 1.11 32.51 315 40.376926150007 43.631381416411 13163.496214286 550319.26608953
1	53698 5067 232 175340 1.11 32.51 315 0 0 0 0
0	58765 5382 232 175340 1.11 32.51 315 -1 -1 -315 315
2	64147 5067 232 175340 1.11 32.51 315 0 0 0 0
10	69214 439 5234 172544 2 32 31 0 0 0 0
9	69653 595 5234 172544 2 32 31 0.023625 0.02625 0.811125 0.021230015625
8	70248 408 5234 172544 2 32 31 0 0 0 0
29	70656 10135 233 175341 1.11 32.51 315 -1.5034793943763 1.5024511425223 14.612947193574 490.4433996227
28	80791 10176 233 175341 1.11 32.51 315 -1.4807765623239 1.4557932514926 12.71446331829 336.22669827394
27	90967 6642 233 175341 1.11 32.51 315 36.55 36.55 11513.25 420809.2875
26	97609 9763 233 175341 1.11 32.51 315 104.44186668396 1416.5146955062 239942.4913222 228252096.90449
25	107372 9749 233 175341 1.11 32.51 315 40.376174691599 43.638018520183 13162.836970428 550264.53658739
23	117121 10670 233 175341 1.11 32.51 315 -0.064317861632617 0.062036140265477 0.53076413669002 0.61087878194621
22	127791 9762 233 175341 1.11 32.51 315 4.9162243244476 5.0934694866734 1574.2477864691 7868.1312639141
24	137553 5382 233 175341 1.11 32.51 315 1 1 315 315
36	142935 12524 964 175516 1.241822900623 32.541819234793 314 0.099998615562 0.100011662497 31.399994994627 3.1399990037825
35	155459 12524 964 175516 1.241822900623 32.541819234793 314 0.099998615562 0.100011662497 31.399994994627 3.1399990037825
34	167983 8476 964 175516 1.241822900623 32.541819234793 314 1 1 314 314
33	176459 8476 964 175516 1.241822900623 32.541819234793 314 1 1 314 314
32	184935 439 5235 172545 2 32 31 0 0 0 0
31	185374 626 5235 172545 2 32 31 0.023625 0.02625 0.811125 0.021230015625
30	186000 439 5235 172545 2 32 31 1 1 31 31
51	186439 10121 234 175342 1.11 32.51 315 -1.5169291880382 1.5151528895636 14.711903389017 495.59299817828
50	196560 10184 234 175342 1.11 32.51 315 -1.474469215502 1.4486483630179 12.594767807748 333.94329038376
49	206744 6642 234 175342 1.11 32.51 315 36.55 36.55 11513.25 420809.2875
48	213386 9758 234 175342 1.11 32.51 315 95.44186668396 1407.4937511924 237107.77741187 223960236.39885
47	223144 9760 234 175342 1.11 32.51 315 40.378695957997 43.631366668468 13162.622959667 550244.93268459
45	232904 10770 234 175342 1.11 32.51 315 -0.018683340416167 0.016164860213557 0.086866128635691 0.032659120248139
44	243674 9739 234 175342 1.11 32.51 315 4.9677844590645 5.0430600949808 1574.709630117 7872.1985027825
46	253413 5382 234 175342 1.11 32.51 315 2 2 630 1260
58	258795 12499 1176 175165 1.28193217081 32.481929862001 313 0.09999861716 0.100011662521 31.299996351648 3.1299992751851
57	271294 12526 970 175522 1.241822930644 32.541819264885 314 0.099998615567 0.100011662495 31.399994994698 3.1399990037967
56	283820 8460 1176 175165 1.28193217081 32.481929862001 313 2 2 626 1252
55	292280 8470 970 175522 1.241822930644 32.541819264885 314 2 2 628 1256
54	300750 439 5236 172546 2 32 31 0 0 0 0
53	301189 626 5236 172546 2 32 31 0.023625 0.02625 0.811125 0.021230015625
52	301815 439 5236 172546 2 32 31 2 2 62 124
73	302254 10127 235 175343 1.11 32.51 315 -1.4985212103817 1.4980940666313 14.75513331124 483.33332127091
72	312381 10196 235 175343 1.11 32.51 315 -1.4637937989967 1.4376572548755 12.433329714506 328.68451655164
71	322577 6642 235 175343 1.11 32.51 315 36.55 36.55 11513.25 420809.2875
70	329219 9761 235 175343 1.11 32.51 315 86.44186668396 1398.483306181 234272.96656173 219719536.40962
69	338980 9767 235 175343 1.11 32.51 315 40.388178954312 43.621112215386 13162.512587808 550232.20757979
67	348747 10847 235 175343 1.11 32.51 315 -0.015548587177328 0.013757095980523 -0.015575820019848 0.017035763731301
66	359594 9760 235 175343 1.11 32.51 315 4.9738525080993 5.0387417426492 1574.8086426962 7873.1578137757
68	369354 5382 235 175343 1.11 32.51 315 3 3 945 2835
80	374736 12486 1040 175029 1.262749960665 32.462760679371 313 0.099998622736 0.100011662364 31.300009379163 3.1300018808214
79	387222 12534 976 175528 1.241822960664 32.541819294942 314 0.099998615572 0.100011662496 31.399994994735 3.1399990038041
78	399756 8444 1040 175029 1.262749960665 32.462760679371 313 3 3 939 2817
77	408200 8476 976 175528 1.241822960664 32.541819294942 314 3 3 942 2826
76	416676 439 5237 172547 2 32 31 0 0 0 0
75	417115 626 5237 172547 2 32 31 0.023625 0.02625 0.811125 0.021230015625
74	417741 439 5237 172547 2 32 31 3 3 93 279
117	418180 10442 237 175345 1.11 32.51 315 -1.4980277574466 8.6168517411634 181.42738281509 1991.5816823338
116	428622 10483 237 175345 1.11 32.51 315 -1.4539402744241 2.4999999999999 46.620006790491 440.94514564102
115	439105 6957 237 175345 1.11 32.51 315 36.55 36.55 11513.25 420809.2875
114	446062 10070 237 175345 1.11 32.51 315 68.44186668396 1384.7981950402 228641.74818087 211495234.09917
113	456132 10079 237 175345 1.11 32.51 315 40.396058340068 46.216515340122 13206.842788405 554045.68077766
111	466211 10932 237 175345 1.11 32.51 315 -0.034429563971734 0.20914941170388 5.2805727492144 1.2046777613262
110	477143 10062 237 175345 1.11 32.51 315 4.977489771326 5.5640501202608 1582.3049375724 7950.8117211637
112	487205 5697 237 175345 1.11 32.51 315 5 5 1575 7875
124	492902 12797 1242 175237 1.287402260872 32.487399938036 313 0.099998616095 0.100011662332 31.300009337621 3.1300018725133
123	505699 12848 988 175540 1.241823020706 32.541819340251 314 0.099998614464 0.100011662497 31.399994980002 3.1399990008576
122	518547 8758 1242 175237 1.287402260872 32.487399938036 313 5 5 1565 7825
121	527305 8799 988 175540 1.241823020706 32.541819340251 314 5 5 1570 7850
120	536104 470 5239 172549 2 32 31 0 0 0 0
119	536574 657 5239 172549 2 32 31 0.023625 0.02625 0.811125 0.021230015625
118	537231 470 5239 172549 2 32 31 5 5 155 775
139	537701 10440 238 175346 1.11 32.51 315 -1.4889617706663 5.0753654358429 93.421536330402 920.33855658633
138	548141 10479 238 175346 1.11 32.51 315 -1.4484613607181 2.4999999999999 42.94339654281 427.51314944986
137	558620 6957 238 175346 1.11 32.51 315 36.55 36.55 11513.25 420809.2875
136	565577 10070 238 175346 1.11 32.51 315 59.44186668396 1374.967948843 225796.62621574 207379051.33767
135	575647 10076 238 175346 1.11 32.51 315 40.402702462264 45.845739593825 13198.410223448 553313.46082308
133	585723 10951 238 175346 1.11 32.51 315 -0.018955475253158 0.34577574629721 7.9663648895667 2.700396873411
132	596674 10055 238 175346 1.11 32.51 315 4.9898917189757 5.8228306822807 1584.9533138291 7979.9003474074
134	606729 5697 238 175346 1.11 32.51 315 6 6 1890 11340
146	612426 12804 1106 175101 1.266712050727 32.466709758299 313 0.099998618324 0.1000116625 31.299996368029 3.129999278461
145	625230 12842 994 175546 1.241823050727 32.541819373078 314 0.099998614588 0.100011662499 31.399994982808 3.1399990014188
144	638072 8769 1106 175101 1.266712050727 32.466709758299 313 6 6 1878 11268
143	646841 8792 994 175546 1.241823050727 32.541819373078 314 6 6 1884 11304
142	655633 470 5240 172550 2 32 31 0 0 0 0
141	656103 657 5240 172550 2 32 31 0.023625 0.02625 0.811125 0.021230015625
140	656760 470 5240 172550 2 32 31 6 6 186 1116
161	657230 10449 239 175347 1.11 32.51 315 -1.4963534210076 3.309229090189 53.930686526252 641.57792301068
160	667679 10484 239 175347 1.11 32.51 315 -1.4517793408615 2.4999999999999 37.996515160336 412.12691163463
159	678163 6957 239 175347 1.11 32.51 315 36.55 36.55 11513.25 420809.2875
158	685120 10066 239 175347 1.11 32.51 315 50.44186668396 1365.2146894063 222953.25425141 203318153.16626
157	695186 10067 239 175347 1.11 32.51 315 40.396257500618 45.383924845796 13190.710909427 552649.4471719
155	705253 10929 239 175347 1.11 32.51 315 -0.031900533582281 0.43693583324679 7.269880055382 2.4665048583623
154	716182 10056 239 175347 1.11 32.51 315 4.9775604236104 5.7440231417258 1583.2179780539 7961.1440575402
156	726238 5697 239 175347 1.11 32.51 315 7 7 2205 15435
168	731935 12800 1308 175297 1.289466320914 32.489464003276 313 0.09999861636 0.100011662511 31.299996342819 3.1299992734193
167	744735 12838 1000 175552 1.241823080747 32.54181940566 314 0.099998614741 0.100011662501 31.39999498537 3.1399990019312
166	757573 8760 1308 175297 1.289466320914 32.489464003276 313 7 7 2191 15337
165	766333 8785 1000 175552 1.241823080747 32.54181940566 314 7 7 2198 15386
164	775118 470 5241 172551 2 32 31 0 0 0 0
163	775588 657 5241 172551 2 32 31 0.023625 0.02625 0.811125 0.021230015625
162	776245 470 5241 172551 2 32 31 7 7 217 1519
88	776715 9780 236 175554 1.11 32.55 316 0 5.0545016829255 1529.8000473055 7561.1821761936
89	786495 10647 236 175554 1.11 32.55 316 -3.668742658223 0.025327726062486 -53.893565490374 137.12796710786
90	797142 5400 236 175554 1.11 32.55 316 4 4 1264 5056
91	802542 9788 236 175554 1.11 32.55 316 40.392642840101 46.550664751826 13259.163742095 556714.81869288
92	812330 9791 236 175554 1.11 32.55 316 77.44186668396 1396.2284547387 232880.39697896 217605224.12592
93	822121 6664 236 175554 1.11 32.55 316 36.55 36.55 11549.8 422145.19
94	828785 10210 236 175554 1.11 32.55 316 -1.4606979535934 2.4999999999999 51.471618893147 454.72154986707
95	838995 10143 236 175554 1.11 32.55 316 -1.4920639083469 15.633183296432 365.4872889003 6015.29772886
96	849138 439 5238 172548 2 32 31 4 4 124 496
97	849577 626 5238 172548 2 32 31 0.023625 0.02625 0.811125 0.021230015625
98	850203 439 5238 172548 2 32 31 0 0 0 0
99	850642 8481 982 175534 1.241822990685 32.54181930831 314 4 4 1256 5024
100	859123 8785 904 175450 1.240525810561 32.540535127532 314 4 4 1256 5024
101	867908 12861 982 175534 1.241822990685 32.54181930831 314 0.099998614387 0.100011662493 31.399994978082 3.1399990004736
102	880769 12835 904 175450 1.240525810561 32.540535127532 314 0.099998614352 0.100011662399 31.400007977428 3.1400016004765
