file 1683449 1512143596                                         
version 2
run SinusoidalAccInjectionAttack-140-20171201-16:52:46-116083
attr CACCSpacing 5
attr attackAcc 0
attr attackPos 7
attr attackSpeed 150
attr attackStart 30
attr attacker 4
attr beaconInterval 0.1
attr configname SinusoidalAccInjectionAttack
attr controller 1
attr datetime 20171201-16:52:46
attr experiment SinusoidalAccInjectionAttack
attr fakeAcc "(4 == 4)"
attr fakePos "(4 == 2)"
attr fakeSpeed "(4 == 3)"
attr inifile omnetpp_140.ini
attr iterationvars "$attacker=4, $attackSpeed=150, $attackPos=7, $attackAcc=0, $leaderSpeed=100, $controller=1, $CACCSpacing=5, $sController=\"CACC\", $attackStart=30, $0=5, $1=0, $nCars=8, $platoonSize=8, $nLanes=1, $beaconInterval=0.1, $priority=2, $packetSize=200, $ploegH=0.5, $leaderHeadway=1.2, $fakeSpeed=(4 == 3), $fakeAcc=(4 == 4), $fakePos=(4 == 2)"
attr iterationvarsf attacker=4,attackSpeed=150,attackPos=7,attackAcc=0,leaderSpeed=100,controller=1,CACCSpacing=5,sController=CACC,attackStart=30,5,0,nCars=8,platoonSize=8,nLanes=1,beaconInterval=0.1,priority=2,packetSize=200,ploegH=0.5,leaderHeadway=1.2,fakeSpeed=(4_==_3),fakeAcc=(4_==_4),fakePos=(4_==_2)-
attr leaderHeadway 1.2
attr leaderSpeed 100
attr measurement "$attacker=4, $attackSpeed=150, $attackPos=7, $attackAcc=0, $leaderSpeed=100, $controller=1, $CACCSpacing=5, $sController=\"CACC\", $attackStart=30, $0=5, $1=0, $nCars=8, $platoonSize=8, $nLanes=1, $beaconInterval=0.1, $priority=2, $packetSize=200, $ploegH=0.5, $leaderHeadway=1.2, $fakeSpeed=(4 == 3), $fakeAcc=(4 == 4), $fakePos=(4 == 2)"
attr nCars 8
attr nLanes 1
attr network scenario
attr packetSize 200
attr platoonSize 8
attr ploegH 0.5
attr priority 2
attr processid 116083
attr repetition 0
attr replication #0
attr resultdir results
attr runnumber 140
attr sController "\"CACC\""
attr seedset 0
param **.coreDebug false
param **.debug false
param **.headway 0.1s
param **.numberOfCars 8
param **.numberOfCarsPerPlatoon 8
param **.numberOfLanes 1
param **.numericController 1
param **.traffic.nCars 8
param **.traffic.nLanes 1
param **.traffic.platoonInsertDistance 5m
param **.traffic.platoonInsertHeadway 0s
param **.traffic.platoonInsertSpeed 100kmph
param **.traffic.platoonInsertTime "1 s"
param **.traffic.platoonLeaderHeadway 1.2s
param **.traffic.platoonSize 8
param **.traffic.platooningVType "\"vtypeauto\""
param **.traffic_type "\"PlatoonsTrafficManager\""
param *.**.nic.mac1609_4.bitrate 6Mbps
param *.**.nic.mac1609_4.txPower 100mW
param *.**.nic.mac1609_4.useServiceChannel false
param *.**.nic.phy80211p.analogueModels "xmldoc(\"config.xml\")"
param *.**.nic.phy80211p.decider "xmldoc(\"config.xml\")"
param *.**.nic.phy80211p.maxTXPower 100mW
param *.**.nic.phy80211p.sensitivity -94dBm
param *.**.nic.phy80211p.thermalNoise -95dBm
param *.**.nic.phy80211p.usePropagationDelay true
param *.**.nic.phy80211p.useThermalNoise true
param *.annotations.draw false
param *.connectionManager.alpha 2.0
param *.connectionManager.carrierFrequency "5.890e9 Hz"
param *.connectionManager.pMax 100mW
param *.connectionManager.sat -94dBm
param *.connectionManager.sendDirect true
param *.manager.autoShutdown true
param *.manager.commandLine "\"sumo --remote-port $port --seed $seed --configuration-file $configFile\""
param *.manager.configFile "\"./sumocfg/freeway.sumo.cfg\""
param *.manager.host "\"localhost\""
param *.manager.margin 25
param *.manager.moduleDisplayString "\"\""
param *.manager.moduleName "\"node\""
param *.manager.moduleType "\"Car\""
param *.manager.updateInterval 0.01s
param *.node[*].appl.attackStart 30s
param *.node[*].appl.attackerType 4
param *.node[*].appl.simulationDuration "60 s"
param *.node[*].appl_type "\"SimplePlatooningApp\""
param *.node[*].helper.nCars 8
param *.node[*].helper.nLanes 1
param *.node[*].helper.platoonSize 8
param *.node[*].helper_type "\"PositionHelper\""
param *.node[*].mobility.x 0
param *.node[*].mobility.y 0
param *.node[*].mobility.z 1.895
param *.node[*].prot.attackStart 30s
param *.node[*].prot.attackerType 4
param *.node[*].prot.attackingNode 3
param *.node[*].prot.beaconingInterval 0.1s
param *.node[*].prot.fakeAcc "(4 == 4)"
param *.node[*].prot.fakePos "(4 == 2)"
param *.node[*].prot.fakeSpeed "(4 == 3)"
param *.node[*].prot.maliciousAcc "0 mpss"
param *.node[*].prot.maliciousSpeed 150kmph
param *.node[*].prot.packetSize 200
param *.node[*].prot.priority 2
param *.node[*].prot.shiftX "7 m"
param *.node[*].prot.useControllerAcceleration true
param *.node[*].protocol_type "\"SimplePlatooningBeaconing\""
param *.node[*].scenario.accHeadway 0.1s
param *.node[*].scenario.caccC1 0.5
param *.node[*].scenario.caccOmegaN "0.2 Hz"
param *.node[*].scenario.caccSpacing 5m
param *.node[*].scenario.caccXi 1
param *.node[*].scenario.controller "\"CACC\""
param *.node[*].scenario.engineTau "0.5 s"
param *.node[*].scenario.leaderHeadway 1.2s
param *.node[*].scenario.leaderSpeed 100kmph
param *.node[*].scenario.ploegH 0.5s
param *.node[*].scenario.ploegKd 0.7
param *.node[*].scenario.ploegKp 0.2
param *.node[*].scenario.useRealisticEngine false
param *.node[*].scenario_type "\"SinusoidalScenario\""
param *.node[*].unicast.packetLossRate 0
param *.obstacles.debug false
param *.playgroundSizeX 65000m
param *.playgroundSizeY 25000m
param *.playgroundSizeZ 50m
param *.world.use2D false
param *.world.useTorus false

vector 0  scenario.node[0].appl  distance  ETV
vector 1  scenario.node[0].appl  relativeSpeed  ETV
vector 2  scenario.node[0].appl  nodeId  ETV
vector 6  scenario.node[0].appl  acceleration  ETV
vector 7  scenario.node[0].appl  controllerAcceleration  ETV
vector 3  scenario.node[0].appl  speed  ETV
vector 4  scenario.node[0].appl  posx  ETV
vector 5  scenario.node[0].appl  posy  ETV
vector 22  scenario.node[1].appl  distance  ETV
vector 23  scenario.node[1].appl  relativeSpeed  ETV
vector 24  scenario.node[1].appl  nodeId  ETV
vector 28  scenario.node[1].appl  acceleration  ETV
vector 29  scenario.node[1].appl  controllerAcceleration  ETV
vector 25  scenario.node[1].appl  speed  ETV
vector 26  scenario.node[1].appl  posx  ETV
vector 27  scenario.node[1].appl  posy  ETV
vector 44  scenario.node[2].appl  distance  ETV
vector 45  scenario.node[2].appl  relativeSpeed  ETV
vector 46  scenario.node[2].appl  nodeId  ETV
vector 50  scenario.node[2].appl  acceleration  ETV
vector 51  scenario.node[2].appl  controllerAcceleration  ETV
vector 47  scenario.node[2].appl  speed  ETV
vector 48  scenario.node[2].appl  posx  ETV
vector 49  scenario.node[2].appl  posy  ETV
vector 66  scenario.node[3].appl  distance  ETV
vector 67  scenario.node[3].appl  relativeSpeed  ETV
vector 68  scenario.node[3].appl  nodeId  ETV
vector 72  scenario.node[3].appl  acceleration  ETV
vector 73  scenario.node[3].appl  controllerAcceleration  ETV
vector 69  scenario.node[3].appl  speed  ETV
vector 70  scenario.node[3].appl  posx  ETV
vector 71  scenario.node[3].appl  posy  ETV
vector 88  scenario.node[4].appl  distance  ETV
vector 89  scenario.node[4].appl  relativeSpeed  ETV
vector 90  scenario.node[4].appl  nodeId  ETV
vector 94  scenario.node[4].appl  acceleration  ETV
vector 95  scenario.node[4].appl  controllerAcceleration  ETV
vector 91  scenario.node[4].appl  speed  ETV
vector 92  scenario.node[4].appl  posx  ETV
vector 93  scenario.node[4].appl  posy  ETV
vector 110  scenario.node[5].appl  distance  ETV
vector 111  scenario.node[5].appl  relativeSpeed  ETV
vector 112  scenario.node[5].appl  nodeId  ETV
vector 116  scenario.node[5].appl  acceleration  ETV
vector 117  scenario.node[5].appl  controllerAcceleration  ETV
vector 113  scenario.node[5].appl  speed  ETV
vector 114  scenario.node[5].appl  posx  ETV
vector 115  scenario.node[5].appl  posy  ETV
vector 132  scenario.node[6].appl  distance  ETV
vector 133  scenario.node[6].appl  relativeSpeed  ETV
vector 134  scenario.node[6].appl  nodeId  ETV
vector 138  scenario.node[6].appl  acceleration  ETV
vector 139  scenario.node[6].appl  controllerAcceleration  ETV
vector 135  scenario.node[6].appl  speed  ETV
vector 136  scenario.node[6].appl  posx  ETV
vector 137  scenario.node[6].appl  posy  ETV
vector 154  scenario.node[7].appl  distance  ETV
vector 155  scenario.node[7].appl  relativeSpeed  ETV
vector 156  scenario.node[7].appl  nodeId  ETV
vector 160  scenario.node[7].appl  acceleration  ETV
vector 161  scenario.node[7].appl  controllerAcceleration  ETV
vector 157  scenario.node[7].appl  speed  ETV
vector 158  scenario.node[7].appl  posx  ETV
vector 159  scenario.node[7].appl  posy  ETV
vector 80  scenario.node[3].prot  frontDelay  ETV
vector 78  scenario.node[3].prot  frontDelayId  ETV
vector 58  scenario.node[2].prot  frontDelay  ETV
vector 56  scenario.node[2].prot  frontDelayId  ETV
vector 168  scenario.node[7].prot  frontDelay  ETV
vector 166  scenario.node[7].prot  frontDelayId  ETV
vector 35  scenario.node[1].prot  leaderDelay  ETV
vector 33  scenario.node[1].prot  leaderDelayId  ETV
vector 36  scenario.node[1].prot  frontDelay  ETV
vector 34  scenario.node[1].prot  frontDelayId  ETV
vector 57  scenario.node[2].prot  leaderDelay  ETV
vector 55  scenario.node[2].prot  leaderDelayId  ETV
vector 79  scenario.node[3].prot  leaderDelay  ETV
vector 77  scenario.node[3].prot  leaderDelayId  ETV
vector 101  scenario.node[4].prot  leaderDelay  ETV
vector 99  scenario.node[4].prot  leaderDelayId  ETV
vector 123  scenario.node[5].prot  leaderDelay  ETV
vector 121  scenario.node[5].prot  leaderDelayId  ETV
vector 145  scenario.node[6].prot  leaderDelay  ETV
vector 143  scenario.node[6].prot  leaderDelayId  ETV
vector 167  scenario.node[7].prot  leaderDelay  ETV
vector 165  scenario.node[7].prot  leaderDelayId  ETV
vector 124  scenario.node[5].prot  frontDelay  ETV
vector 122  scenario.node[5].prot  frontDelayId  ETV
vector 102  scenario.node[4].prot  frontDelay  ETV
vector 100  scenario.node[4].prot  frontDelayId  ETV
vector 146  scenario.node[6].prot  frontDelay  ETV
vector 144  scenario.node[6].prot  frontDelayId  ETV
vector 8  scenario.node[0].prot  nodeId  ETV
vector 9  scenario.node[0].prot  busyTime  ETV
vector 10  scenario.node[0].prot  collisions  ETV
vector 30  scenario.node[1].prot  nodeId  ETV
vector 31  scenario.node[1].prot  busyTime  ETV
vector 32  scenario.node[1].prot  collisions  ETV
vector 52  scenario.node[2].prot  nodeId  ETV
vector 53  scenario.node[2].prot  busyTime  ETV
vector 54  scenario.node[2].prot  collisions  ETV
vector 74  scenario.node[3].prot  nodeId  ETV
vector 75  scenario.node[3].prot  busyTime  ETV
vector 76  scenario.node[3].prot  collisions  ETV
vector 96  scenario.node[4].prot  nodeId  ETV
vector 97  scenario.node[4].prot  busyTime  ETV
vector 98  scenario.node[4].prot  collisions  ETV
vector 118  scenario.node[5].prot  nodeId  ETV
vector 119  scenario.node[5].prot  busyTime  ETV
vector 120  scenario.node[5].prot  collisions  ETV
vector 140  scenario.node[6].prot  nodeId  ETV
vector 141  scenario.node[6].prot  busyTime  ETV
vector 142  scenario.node[6].prot  collisions  ETV
vector 162  scenario.node[7].prot  nodeId  ETV
vector 163  scenario.node[7].prot  busyTime  ETV
vector 164  scenario.node[7].prot  collisions  ETV
7	11074 13860 232 328174 1.11 59.91 589 -1.5 1.5 -14.445974034379 993.24092368185
6	24934 18594 232 328174 1.11 59.91 589 -1.4722746794938 1.4513434175793 -12.50726914995 675.29835222675
5	43528 12081 232 328174 1.11 59.91 589 36.55 36.55 21527.95 786846.5725
4	55609 17898 232 328174 1.11 59.91 589 99.217642974587 1736.867108517 541546.72840376 629706553.87567
3	73507 17905 232 328174 1.11 59.91 589 26.487965859734 29.742492528104 16403.83880962 457295.15275867
1	91412 9725 232 328174 1.11 59.91 589 0 0 0 0
0	101137 10314 232 328174 1.11 59.91 589 -1 -1 -589 589
2	111451 9725 232 328174 1.11 59.91 589 0 0 0 0
10	121176 858 5102 328596 2 60 59 0 0 0 0
9	122034 1154 5102 328596 2 60 59 0.022969 0.02625 1.545469 0.040493199961
8	123188 799 5102 328596 2 60 59 0 0 0 0
29	123987 19067 233 328175 1.11 59.91 589 -1.51297165279 1.51296484251 -15.574776614509 998.84117653767
28	143054 19172 233 328175 1.11 59.91 589 -1.4840815553274 1.4595456977474 -12.191933384861 679.4838222386
27	162226 12670 233 328175 1.11 59.91 589 36.55 36.55 21527.95 786846.5725
26	174896 18487 233 328175 1.11 59.91 589 90.217642974854 1727.9430798462 536244.62610011 620005954.12341
25	193383 18491 233 328175 1.11 59.91 589 26.483797963405 29.74860430989 16404.610714113 457340.86463993
23	211874 20100 233 328175 1.11 59.91 589 -0.074693814310276 0.072861104416422 -0.64683180161412 1.7868716746899
22	231974 18486 233 328175 1.11 59.91 589 4.9147225894276 5.1113154328265 2946.11774174 14737.836939111
24	250460 10314 233 328175 1.11 59.91 589 1 1 589 589
36	260774 23690 1032 328418 1.254911230853 59.954923324594 588 0.099907839697 0.10008985429 58.800023934323 5.8800058132099
35	284464 23690 1032 328418 1.254911230853 59.954923324594 588 0.099907839697 0.10008985429 58.800023934323 5.8800058132099
34	308154 16115 1032 328418 1.254911230853 59.954923324594 588 1 1 588 588
33	324269 16115 1032 328418 1.254911230853 59.954923324594 588 1 1 588 588
32	340384 858 5103 328597 2 60 59 0 0 0 0
31	341242 1213 5103 328597 2 60 59 0.022969 0.02625 1.545469 0.040493199961
30	342455 858 5103 328597 2 60 59 1 1 59 59
51	343313 19063 234 328176 1.11 59.91 589 -1.4952754263723 1.4970992082337 -15.64793881746 972.59613291784
50	362376 19181 234 328176 1.11 59.91 589 -1.4761121300058 1.4494360548792 -11.88463500762 672.52742404587
49	381557 12670 234 328176 1.11 59.91 589 36.55 36.55 21527.95 786846.5725
48	394227 18500 234 328176 1.11 59.91 589 81.217642974854 1718.9816840713 530942.98767442 610401267.37192
47	412727 18479 234 328176 1.11 59.91 589 26.489607272832 29.743342827976 16405.008100064 457358.12998937
45	431206 20137 234 328176 1.11 59.91 589 -0.042592453278694 0.039108606634183 -0.27546661718162 0.42119239853691
44	451343 18484 234 328176 1.11 59.91 589 4.9490553517333 5.073511309269 2945.6463734087 14732.017927416
46	469827 10314 234 328176 1.11 59.91 589 2 2 1178 2356
58	480141 23702 900 328286 1.229657900624 59.92965699331 588 0.099998839147 0.100011864233 58.799997933268 5.8799995946644
57	503843 23673 1038 328424 1.254911260874 59.954923354482 588 0.099907839705 0.100089854273 58.80002393419 5.8800058131833
56	527516 16106 900 328286 1.229657900624 59.92965699331 588 2 2 1176 2352
55	543622 16101 1038 328424 1.254911260874 59.954923354482 588 2 2 1176 2352
54	559723 858 5104 328598 2 60 59 0 0 0 0
53	560581 1213 5104 328598 2 60 59 0.022969 0.02625 1.545469 0.040493199961
52	561794 858 5104 328598 2 60 59 2 2 118 236
73	562652 19043 235 328177 1.11 59.91 589 -1.4890877726353 1.4891492873218 -15.532074936591 946.5173813048
72	581695 19172 235 328177 1.11 59.91 589 -1.4634887750212 1.4362599131303 -11.632982709298 660.2545767457
71	600867 12670 235 328177 1.11 59.91 589 36.55 36.55 21527.95 786846.5725
70	613537 18506 235 328177 1.11 59.91 589 72.217642974854 1709.9981726479 525641.37347569 600892165.20906
69	632043 18498 235 328177 1.11 59.91 589 26.502581656561 29.730048242857 16405.181994571 457359.98098268
67	650541 20344 235 328177 1.11 59.91 589 -0.022067714510641 0.020412765752095 -0.055048157468683 0.076637645586748
66	670885 18464 235 328177 1.11 59.91 589 4.970444718173 5.0493611528806 2945.6176766231 14731.36344956
68	689349 10314 235 328177 1.11 59.91 589 3 3 1767 5301
80	699663 23707 832 328218 1.213904870603 59.913903963493 588 0.099998839139 0.100011864157 58.799997933472 5.8799995947053
79	723370 23699 1044 328430 1.254911290894 59.954923384444 588 0.099907839706 0.100089854264 58.800023934132 5.8800058131717
78	747069 16114 832 328218 1.213904870603 59.913903963493 588 3 3 1764 5292
77	763183 16114 1044 328430 1.254911290894 59.954923384444 588 3 3 1764 5292
76	779297 858 5105 328599 2 60 59 0 0 0 0
75	780155 1213 5105 328599 2 60 59 0.022968 0.02625 1.545468 0.040493154024
74	781368 858 5105 328599 2 60 59 3 3 177 531
95	782226 19306 236 328178 1.11 59.91 589 -1.4821537214797 1.4817587934171 -6.6569320515812 522.10263063463
94	801532 19363 236 328178 1.11 59.91 589 -1.452742805564 1.426191368445 -4.4307433926988 368.37100842049
93	820895 12670 236 328178 1.11 59.91 589 36.55 36.55 21527.95 786846.5725
92	833565 18501 236 328178 1.11 59.91 589 63.217642974853 1700.773007993 520144.86616538 591032751.95944
91	852066 18486 236 328178 1.11 59.91 589 26.486226015468 29.716886431342 16403.179805945 457080.22184966
89	870552 19956 236 328178 1.11 59.91 589 -0.86439248404567 1.0191473781554 2.1185184532717 82.041001750448
88	890508 18475 236 328178 1.11 59.91 589 4.5375569631178 7.125726354191 3140.4672665329 16935.923246189
90	908983 10314 236 328178 1.11 59.91 589 4 4 2356 9424
102	919297 24309 1246 328641 1.303561561081 60.003560657096 588 0.099998839151 0.10001186381 58.799997936597 5.8799995953303
101	943606 24296 1050 328436 1.254911320915 59.954923415121 588 0.099907839704 0.100089854142 58.800023934788 5.8800058133029
100	967902 16712 1246 328641 1.303561561081 60.003560657096 588 4 4 2352 9408
99	984614 16127 1050 328436 1.254911320915 59.954923415121 588 4 4 2352 9408
98	1000741 858 5106 328600 2 60 59 0 0 0 0
97	1001599 1213 5106 328600 2 60 59 0.022969 0.02625 1.545469 0.040493199961
96	1002812 858 5106 328600 2 60 59 4 4 236 944
117	1003670 19700 237 328179 1.11 59.91 589 -1.4896672661499 1.4914667280331 -11.011458682467 709.00018517148
116	1023370 19898 237 328179 1.11 59.91 589 -1.4475619142914 1.4230601844609 -8.4569698973013 480.41562945523
115	1043268 13259 237 328179 1.11 59.91 589 36.55 36.55 21527.95 786846.5725
114	1056527 19088 237 328179 1.11 59.91 589 54.217641067505 1691.7357477909 514849.93989038 581714873.17418
113	1075615 19073 237 328179 1.11 59.91 589 26.51258921573 29.708613948087 16402.666825072 457113.72546464
111	1094688 20444 237 328179 1.11 59.91 589 -0.46066752678344 0.52865567216406 0.55728830683261 25.380923136437
110	1115132 19087 237 328179 1.11 59.91 589 4.132517895346 5.4772307047087 2938.9160153825 14694.851296558
112	1134219 10903 237 328179 1.11 59.91 589 5 5 2945 14725
124	1145122 24292 1172 328552 1.26574753106 59.965746626101 588 0.099998839152 0.100011863884 58.799997935623 5.8799995951354
123	1169414 24261 1056 328442 1.254911350936 59.954923445319 588 0.099907839698 0.100089854224 58.800023934965 5.8800058133383
122	1193675 16711 1172 328552 1.26574753106 59.965746626101 588 5 5 2940 14700
121	1210386 16694 1056 328442 1.254911350936 59.954923445319 588 5 5 2940 14700
120	1227080 917 5107 328601 2 60 59 0 0 0 0
119	1227997 1272 5107 328601 2 60 59 0.022968 0.02625 1.545468 0.040493154024
118	1229269 917 5107 328601 2 60 59 5 5 295 1475
139	1230186 19649 238 328180 1.11 59.91 589 -1.4807582968079 1.4812783402948 -13.227328729763 816.28358072764
138	1249835 19783 238 328180 1.11 59.91 589 -1.4503739176149 1.4264948356413 -10.235745076056 569.93814397715
137	1269618 13259 238 328180 1.11 59.91 589 36.55 36.55 21527.95 786846.5725
136	1282877 19094 238 328180 1.11 59.91 589 45.217641067505 1682.7221702873 509555.59204365 572495171.11971
135	1301971 19109 238 328180 1.11 59.91 589 26.508259283633 29.713767019085 16402.469489412 457155.47998785
133	1321080 20518 238 328180 1.11 59.91 589 -0.26718076527778 0.25032824861601 0.28190535951277 6.0363198281669
132	1341598 19062 238 328180 1.11 59.91 589 4.4671860814307 5.2692527300769 2938.3439000177 14670.984081752
134	1360660 10903 238 328180 1.11 59.91 589 6 6 3534 21204
146	1371563 24301 1312 328701 1.305157621123 60.005156717481 588 0.09999883915 0.10001186413 58.79999793694 5.8799995953988
145	1395864 24271 1062 328448 1.254911380957 59.954923475409 588 0.099907839699 0.100089854249 58.800023935034 5.8800058133521
144	1420135 16717 1312 328701 1.305157621123 60.005156717481 588 6 6 3528 21168
143	1436852 16698 1062 328448 1.254911380957 59.954923475409 588 6 6 3528 21168
142	1453550 917 5108 328602 2 60 59 0 0 0 0
141	1454467 1272 5108 328602 2 60 59 0.022969 0.02625 1.545469 0.040493199961
140	1455739 917 5108 328602 2 60 59 6 6 354 2124
161	1456656 19649 239 328181 1.11 59.91 589 -1.4938774161461 1.493808852043 -14.45608287277 907.52847488978
160	1476305 19769 239 328181 1.11 59.91 589 -1.4564665686184 1.4312228051025 -10.869151387557 618.4505422067
159	1496074 13259 239 328181 1.11 59.91 589 36.55 36.55 21527.95 786846.5725
158	1509333 19082 239 328181 1.11 59.91 589 36.217641067505 1673.7021308676 504262.56985627 563376612.88483
157	1528415 19093 239 328181 1.11 59.91 589 26.453024696166 29.719191219808 16402.24784564 457172.38278085
155	1547508 20863 239 328181 1.11 59.91 589 -0.15319289476744 0.13566986900481 0.32400122204345 1.5176732426739
154	1568371 19069 239 328181 1.11 59.91 589 4.6564787501458 5.17840250572 2937.0177545028 14651.909575593
156	1587440 10903 239 328181 1.11 59.91 589 7 7 4123 28861
168	1598343 24285 975 328361 1.254433050728 59.954432144349 588 0.099998839143 0.100011864228 58.799997934203 5.8799995948514
167	1622628 24289 1068 328454 1.254911410977 59.954923505505 588 0.099907839704 0.100089854251 58.80002393511 5.8800058133673
166	1646917 16719 975 328361 1.254433050728 59.954432144349 588 7 7 4116 28812
165	1663636 16707 1068 328454 1.254911410977 59.954923505505 588 7 7 4116 28812
164	1680343 917 5109 328603 2 60 59 0 0 0 0
163	1681260 1272 5109 328603 2 60 59 0.022969 0.02625 1.545469 0.040493199961
162	1682532 917 5109 328603 2 60 59 7 7 413 2891
