version 2
run SinusoidalAccInjectionAttack-214-20171201-16:59:30-60379
attr CACCSpacing 20
attr attackAcc 10
attr attackPos 7
attr attackSpeed 150
attr attackStart 30
attr attacker 4
attr beaconInterval 0.1
attr configname SinusoidalAccInjectionAttack
attr controller 2
attr datetime 20171201-16:59:30
attr experiment SinusoidalAccInjectionAttack
attr fakeAcc "(4 == 4)"
attr fakePos "(4 == 2)"
attr fakeSpeed "(4 == 3)"
attr inifile omnetpp_214.ini
attr iterationvars "$attacker=4, $attackSpeed=150, $attackPos=7, $attackAcc=10, $leaderSpeed=100, $controller=2, $CACCSpacing=20, $sController=\"PLOEG\", $attackStart=30, $0=2, $1=0.5, $nCars=8, $platoonSize=8, $nLanes=1, $beaconInterval=0.1, $priority=2, $packetSize=200, $ploegH=0.5, $leaderHeadway=1.2, $fakeSpeed=(4 == 3), $fakeAcc=(4 == 4), $fakePos=(4 == 2)"
attr iterationvarsf attacker=4,attackSpeed=150,attackPos=7,attackAcc=10,leaderSpeed=100,controller=2,CACCSpacing=20,sController=PLOEG,attackStart=30,2,0.5,nCars=8,platoonSize=8,nLanes=1,beaconInterval=0.1,priority=2,packetSize=200,ploegH=0.5,leaderHeadway=1.2,fakeSpeed=(4_==_3),fakeAcc=(4_==_4),fakePos=(4_==_2)-
attr leaderHeadway 1.2
attr leaderSpeed 100
attr measurement "$attacker=4, $attackSpeed=150, $attackPos=7, $attackAcc=10, $leaderSpeed=100, $controller=2, $CACCSpacing=20, $sController=\"PLOEG\", $attackStart=30, $0=2, $1=0.5, $nCars=8, $platoonSize=8, $nLanes=1, $beaconInterval=0.1, $priority=2, $packetSize=200, $ploegH=0.5, $leaderHeadway=1.2, $fakeSpeed=(4 == 3), $fakeAcc=(4 == 4), $fakePos=(4 == 2)"
attr nCars 8
attr nLanes 1
attr network scenario
attr packetSize 200
attr platoonSize 8
attr ploegH 0.5
attr priority 2
attr processid 60379
attr repetition 4
attr replication #4
attr resultdir results
attr runnumber 214
attr sController "\"PLOEG\""
attr seedset 4
param **.coreDebug false
param **.debug false
param **.headway 0.1s
param **.numberOfCars 8
param **.numberOfCarsPerPlatoon 8
param **.numberOfLanes 1
param **.numericController 2
param **.traffic.nCars 8
param **.traffic.nLanes 1
param **.traffic.platoonInsertDistance 2m
param **.traffic.platoonInsertHeadway 0.5s
param **.traffic.platoonInsertSpeed 100kmph
param **.traffic.platoonInsertTime "1 s"
param **.traffic.platoonLeaderHeadway 1.2s
param **.traffic.platoonSize 8
param **.traffic.platooningVType "\"vtypeauto\""
param **.traffic_type "\"PlatoonsTrafficManager\""
param *.**.nic.mac1609_4.bitrate 6Mbps
param *.**.nic.mac1609_4.txPower 100mW
param *.**.nic.mac1609_4.useServiceChannel false
param *.**.nic.phy80211p.analogueModels "xmldoc(\"config.xml\")"
param *.**.nic.phy80211p.decider "xmldoc(\"config.xml\")"
param *.**.nic.phy80211p.maxTXPower 100mW
param *.**.nic.phy80211p.sensitivity -94dBm
param *.**.nic.phy80211p.thermalNoise -95dBm
param *.**.nic.phy80211p.usePropagationDelay true
param *.**.nic.phy80211p.useThermalNoise true
param *.annotations.draw false
param *.connectionManager.alpha 2.0
param *.connectionManager.carrierFrequency "5.890e9 Hz"
param *.connectionManager.pMax 100mW
param *.connectionManager.sat -94dBm
param *.connectionManager.sendDirect true
param *.manager.autoShutdown true
param *.manager.commandLine "\"sumo --remote-port $port --seed $seed --configuration-file $configFile\""
param *.manager.configFile "\"./sumocfg/freeway.sumo.cfg\""
param *.manager.host "\"localhost\""
param *.manager.margin 25
param *.manager.moduleDisplayString "\"\""
param *.manager.moduleName "\"node\""
param *.manager.moduleType "\"Car\""
param *.manager.updateInterval 0.01s
param *.node[*].appl.attackStart 30s
param *.node[*].appl.attackerType 4
param *.node[*].appl.simulationDuration "60 s"
param *.node[*].appl_type "\"SimplePlatooningApp\""
param *.node[*].helper.nCars 8
param *.node[*].helper.nLanes 1
param *.node[*].helper.platoonSize 8
param *.node[*].helper_type "\"PositionHelper\""
param *.node[*].mobility.x 0
param *.node[*].mobility.y 0
param *.node[*].mobility.z 1.895
param *.node[*].prot.attackStart 30s
param *.node[*].prot.attackerType 4
param *.node[*].prot.attackingNode 3
param *.node[*].prot.beaconingInterval 0.1s
param *.node[*].prot.fakeAcc "(4 == 4)"
param *.node[*].prot.fakePos "(4 == 2)"
param *.node[*].prot.fakeSpeed "(4 == 3)"
param *.node[*].prot.maliciousAcc "10 mpss"
param *.node[*].prot.maliciousSpeed 150kmph
param *.node[*].prot.packetSize 200
param *.node[*].prot.priority 2
param *.node[*].prot.shiftX "7 m"
param *.node[*].prot.useControllerAcceleration true
param *.node[*].protocol_type "\"SimplePlatooningBeaconing\""
param *.node[*].scenario.accHeadway 0.1s
param *.node[*].scenario.caccC1 0.5
param *.node[*].scenario.caccOmegaN "0.2 Hz"
param *.node[*].scenario.caccSpacing 20m
param *.node[*].scenario.caccXi 1
param *.node[*].scenario.controller "\"PLOEG\""
param *.node[*].scenario.engineTau "0.5 s"
param *.node[*].scenario.leaderHeadway 1.2s
param *.node[*].scenario.leaderSpeed 100kmph
param *.node[*].scenario.ploegH 0.5s
param *.node[*].scenario.ploegKd 0.7
param *.node[*].scenario.ploegKp 0.2
param *.node[*].scenario.useRealisticEngine false
param *.node[*].scenario_type "\"SinusoidalScenario\""
param *.node[*].unicast.packetLossRate 0
param *.obstacles.debug false
param *.playgroundSizeX 65000m
param *.playgroundSizeY 25000m
param *.playgroundSizeZ 50m
param *.world.use2D false
param *.world.useTorus false

vector 0  scenario.node[0].appl  distance  ETV
vector 1  scenario.node[0].appl  relativeSpeed  ETV
vector 2  scenario.node[0].appl  nodeId  ETV
vector 6  scenario.node[0].appl  acceleration  ETV
vector 7  scenario.node[0].appl  controllerAcceleration  ETV
vector 3  scenario.node[0].appl  speed  ETV
vector 4  scenario.node[0].appl  posx  ETV
vector 5  scenario.node[0].appl  posy  ETV
vector 22  scenario.node[1].appl  distance  ETV
vector 23  scenario.node[1].appl  relativeSpeed  ETV
vector 24  scenario.node[1].appl  nodeId  ETV
vector 28  scenario.node[1].appl  acceleration  ETV
vector 29  scenario.node[1].appl  controllerAcceleration  ETV
vector 25  scenario.node[1].appl  speed  ETV
vector 26  scenario.node[1].appl  posx  ETV
vector 27  scenario.node[1].appl  posy  ETV
vector 44  scenario.node[2].appl  distance  ETV
vector 45  scenario.node[2].appl  relativeSpeed  ETV
vector 46  scenario.node[2].appl  nodeId  ETV
vector 50  scenario.node[2].appl  acceleration  ETV
vector 51  scenario.node[2].appl  controllerAcceleration  ETV
vector 47  scenario.node[2].appl  speed  ETV
vector 48  scenario.node[2].appl  posx  ETV
vector 49  scenario.node[2].appl  posy  ETV
vector 66  scenario.node[3].appl  distance  ETV
vector 67  scenario.node[3].appl  relativeSpeed  ETV
vector 68  scenario.node[3].appl  nodeId  ETV
vector 72  scenario.node[3].appl  acceleration  ETV
vector 73  scenario.node[3].appl  controllerAcceleration  ETV
vector 69  scenario.node[3].appl  speed  ETV
vector 70  scenario.node[3].appl  posx  ETV
vector 71  scenario.node[3].appl  posy  ETV
vector 88  scenario.node[4].appl  distance  ETV
vector 89  scenario.node[4].appl  relativeSpeed  ETV
vector 90  scenario.node[4].appl  nodeId  ETV
vector 94  scenario.node[4].appl  acceleration  ETV
vector 95  scenario.node[4].appl  controllerAcceleration  ETV
vector 91  scenario.node[4].appl  speed  ETV
vector 92  scenario.node[4].appl  posx  ETV
vector 93  scenario.node[4].appl  posy  ETV
vector 110  scenario.node[5].appl  distance  ETV
vector 111  scenario.node[5].appl  relativeSpeed  ETV
vector 112  scenario.node[5].appl  nodeId  ETV
vector 116  scenario.node[5].appl  acceleration  ETV
vector 117  scenario.node[5].appl  controllerAcceleration  ETV
vector 113  scenario.node[5].appl  speed  ETV
vector 114  scenario.node[5].appl  posx  ETV
vector 115  scenario.node[5].appl  posy  ETV
vector 132  scenario.node[6].appl  distance  ETV
vector 133  scenario.node[6].appl  relativeSpeed  ETV
vector 134  scenario.node[6].appl  nodeId  ETV
vector 138  scenario.node[6].appl  acceleration  ETV
vector 139  scenario.node[6].appl  controllerAcceleration  ETV
vector 135  scenario.node[6].appl  speed  ETV
vector 136  scenario.node[6].appl  posx  ETV
vector 137  scenario.node[6].appl  posy  ETV
vector 154  scenario.node[7].appl  distance  ETV
vector 155  scenario.node[7].appl  relativeSpeed  ETV
vector 156  scenario.node[7].appl  nodeId  ETV
vector 160  scenario.node[7].appl  acceleration  ETV
vector 161  scenario.node[7].appl  controllerAcceleration  ETV
vector 157  scenario.node[7].appl  speed  ETV
vector 158  scenario.node[7].appl  posx  ETV
vector 159  scenario.node[7].appl  posy  ETV
vector 102  scenario.node[4].prot  frontDelay  ETV
vector 100  scenario.node[4].prot  frontDelayId  ETV
vector 35  scenario.node[1].prot  leaderDelay  ETV
vector 33  scenario.node[1].prot  leaderDelayId  ETV
vector 36  scenario.node[1].prot  frontDelay  ETV
vector 34  scenario.node[1].prot  frontDelayId  ETV
vector 57  scenario.node[2].prot  leaderDelay  ETV
vector 55  scenario.node[2].prot  leaderDelayId  ETV
vector 79  scenario.node[3].prot  leaderDelay  ETV
vector 77  scenario.node[3].prot  leaderDelayId  ETV
vector 101  scenario.node[4].prot  leaderDelay  ETV
vector 99  scenario.node[4].prot  leaderDelayId  ETV
vector 123  scenario.node[5].prot  leaderDelay  ETV
vector 121  scenario.node[5].prot  leaderDelayId  ETV
vector 145  scenario.node[6].prot  leaderDelay  ETV
vector 143  scenario.node[6].prot  leaderDelayId  ETV
vector 167  scenario.node[7].prot  leaderDelay  ETV
vector 165  scenario.node[7].prot  leaderDelayId  ETV
vector 80  scenario.node[3].prot  frontDelay  ETV
vector 78  scenario.node[3].prot  frontDelayId  ETV
vector 146  scenario.node[6].prot  frontDelay  ETV
vector 144  scenario.node[6].prot  frontDelayId  ETV
vector 58  scenario.node[2].prot  frontDelay  ETV
vector 56  scenario.node[2].prot  frontDelayId  ETV
vector 124  scenario.node[5].prot  frontDelay  ETV
vector 122  scenario.node[5].prot  frontDelayId  ETV
vector 168  scenario.node[7].prot  frontDelay  ETV
vector 166  scenario.node[7].prot  frontDelayId  ETV
vector 8  scenario.node[0].prot  nodeId  ETV
vector 9  scenario.node[0].prot  busyTime  ETV
vector 10  scenario.node[0].prot  collisions  ETV
vector 30  scenario.node[1].prot  nodeId  ETV
vector 31  scenario.node[1].prot  busyTime  ETV
vector 32  scenario.node[1].prot  collisions  ETV
vector 52  scenario.node[2].prot  nodeId  ETV
vector 53  scenario.node[2].prot  busyTime  ETV
vector 54  scenario.node[2].prot  collisions  ETV
vector 74  scenario.node[3].prot  nodeId  ETV
vector 75  scenario.node[3].prot  busyTime  ETV
vector 76  scenario.node[3].prot  collisions  ETV
vector 96  scenario.node[4].prot  nodeId  ETV
vector 97  scenario.node[4].prot  busyTime  ETV
vector 98  scenario.node[4].prot  collisions  ETV
vector 118  scenario.node[5].prot  nodeId  ETV
vector 119  scenario.node[5].prot  busyTime  ETV
vector 120  scenario.node[5].prot  collisions  ETV
vector 140  scenario.node[6].prot  nodeId  ETV
vector 141  scenario.node[6].prot  busyTime  ETV
vector 142  scenario.node[6].prot  collisions  ETV
vector 162  scenario.node[7].prot  nodeId  ETV
vector 163  scenario.node[7].prot  busyTime  ETV
vector 164  scenario.node[7].prot  collisions  ETV
7	232	1.11	-8.430731206488e-07
7	788	1.21	-8.247038785214e-07
7	1344	1.31	-7.948429328053e-07
7	1900	1.41	-7.5609037608615e-07
7	2456	1.51	-7.1073863239235e-07
7	3012	1.61	-6.6078666094427e-07
7	3568	1.71	-6.079568990458e-07
7	4124	1.81	-5.5371389606762e-07
7	4680	1.91	-4.9928438983216e-07
7	5244	2.01	-4.4567811841034e-07
7	5800	2.11	-3.9370868165634e-07
7	6356	2.21	-3.4401411852514e-07
7	6912	2.31	-2.9707706872273e-07
7	7468	2.41	-2.5324398578164e-07
7	8024	2.51	-2.1274344064182e-07
7	8580	2.61	-1.7570315336002e-07
7	9136	2.71	-1.4216582755466e-07
7	9692	2.81	-1.1210364547765e-07
7	10248	2.91	-8.5431519636359e-08
7	10812	3.01	-6.2018816748832e-08
7	11368	3.11	-4.1699859565369e-08
7	11924	3.21	-2.4283316690799e-08
7	12480	3.31	-9.5601571103998e-09
7	13036	3.41	2.6894362292751e-09
7	13592	3.51	1.2690140493987e-08
7	14148	3.61	2.0666576006079e-08
7	14704	3.71	2.6839355626862e-08
7	15260	3.81	3.1421798496467e-08
7	15816	3.91	3.4617407607129e-08
7	16380	4.01	3.6617997523081e-08
7	16936	4.11	3.7602347902066e-08
7	17492	4.21	3.7735404134764e-08
7	18048	4.31	3.7167730226884e-08
7	18604	4.41	3.6035434192172e-08
7	19160	4.51	3.446024621212e-08
7	19716	4.61	3.2549973383311e-08
7	20272	4.71	3.0399071704323e-08
7	20828	4.81	2.8089345960325e-08
7	21384	4.91	2.5690727767369e-08
7	21949	5.01	2.326218861981e-08
7	22506	5.11	0.34814789186464
7	23063	5.21	0.68726937161622
7	23620	5.31	1.0064706311115
7	24177	5.41	1.2963311698934
7	24734	5.51	1.5
7	25291	5.61	1.5
7	25848	5.71	1.5
7	26405	5.81	1.5
7	26962	5.91	1.5
7	27527	6.01	1.5
7	28084	6.11	1.5
7	28641	6.21	1.5
7	29198	6.31	1.5
7	29755	6.41	1.5
7	30312	6.51	1.4919234148491
7	30869	6.61	1.226499329248
7	31426	6.71	0.92305384082895
7	31983	6.81	0.58908102066068
7	32540	6.91	0.2323562172788
7	33105	7.01	-0.13919559696193
7	33662	7.11	-0.51762846464532
7	34219	7.21	-0.89509993840359
7	34776	7.31	-1.2639902875456
7	35333	7.41	-1.5
7	35890	7.51	-1.5
7	36447	7.61	-1.5
7	37004	7.71	-1.5
7	37561	7.81	-1.5
7	38118	7.91	-1.5
7	38683	8.01	-1.5
7	39240	8.11	-1.5
7	39797	8.21	-1.5
7	40354	8.31	-1.5
7	40911	8.41	-1.5
7	41468	8.51	-1.5
7	42025	8.61	-1.5
7	42582	8.71	-1.5
7	43139	8.81	-1.5
7	43696	8.91	-1.5
7	44261	9.01	-1.5
7	44818	9.11	-1.5
7	45375	9.21	-1.5
7	45932	9.31	-1.5
7	46489	9.41	-1.5
7	47046	9.51	-1.1784535904302
7	47603	9.61	-0.73985166419522
7	48160	9.71	-0.29046662059022
7	48717	9.81	0.15868205669937
7	49274	9.91	0.59737147691163
7	49839	10.01	1.0162504341895
7	50396	10.11	1.4069035498921
7	50953	10.21	1.5
7	51510	10.31	1.5
7	52067	10.41	1.5
7	52624	10.51	1.5
7	53181	10.61	1.5
7	53738	10.71	1.5
7	54295	10.81	1.5
7	54852	10.91	1.5
7	55417	11.01	1.5
7	55974	11.11	1.5
7	56531	11.21	1.5
7	57088	11.31	1.5
7	57645	11.41	1.5
7	58202	11.51	1.5
7	58759	11.61	1.5
7	59316	11.71	1.5
7	59873	11.81	1.5
7	60430	11.91	1.142056952341
7	60995	12.01	0.73271074174567
7	61552	12.11	0.30763491703603
7	62109	12.21	-0.1229018340005
7	62666	12.31	-0.54917422864573
7	63223	12.41	-0.96209331715876
7	63780	12.51	-1.353290027524
7	64337	12.61	-1.5
7	64894	12.71	-1.5
7	65451	12.81	-1.5
7	66008	12.91	-1.5
7	66573	13.01	-1.5
7	67130	13.11	-1.5
7	67687	13.21	-1.5
7	68244	13.31	-1.5
7	68801	13.41	-1.5
7	69358	13.51	-1.5
7	69915	13.61	-1.5
7	70472	13.71	-1.5
7	71029	13.81	-1.5
7	71586	13.91	-1.5
7	72151	14.01	-1.5
7	72708	14.11	-1.5
7	73265	14.21	-1.5
7	73822	14.31	-1.5
7	74379	14.41	-1.3008305793136
7	74936	14.51	-0.8883573602082
7	75493	14.61	-0.45792464374534
7	76050	14.71	-0.020297800477731
7	76607	14.81	0.41435934757689
7	77164	14.91	0.83657487484984
7	77729	15.01	1.2376491838973
7	78286	15.11	1.5
7	78843	15.21	1.5
7	79400	15.31	1.5
7	79957	15.41	1.5
7	80514	15.51	1.5
7	81071	15.61	1.5
7	81628	15.71	1.5
7	82185	15.81	1.5
7	82742	15.91	1.5
7	83307	16.01	1.5
7	83864	16.11	1.5
7	84421	16.21	1.5
7	84978	16.31	1.5
7	85535	16.41	1.5
7	86092	16.51	1.5
7	86649	16.61	1.5
7	87206	16.71	1.5
7	87763	16.81	1.5
7	88320	16.91	1.2451238477401
7	88885	17.01	0.83347870135556
7	89442	17.11	0.40470958877082
7	89999	17.21	-0.03059806221717
7	90556	17.31	-0.46243980386486
7	91113	17.41	-0.8814833530446
7	91670	17.51	-1.2791500631707
7	92227	17.61	-1.5
7	92784	17.71	-1.5
7	93341	17.81	-1.5
7	93898	17.91	-1.5
7	94463	18.01	-1.5
7	95020	18.11	-1.5
7	95577	18.21	-1.5
7	96134	18.31	-1.5
7	96691	18.41	-1.5
7	97248	18.51	-1.5
7	97805	18.61	-1.5
7	98362	18.71	-1.5
7	98919	18.81	-1.5
7	99476	18.91	-1.5
7	100041	19.01	-1.5
7	100598	19.11	-1.5
7	101155	19.21	-1.5
7	101712	19.31	-1.5
7	102269	19.41	-1.2657245815118
7	102826	19.51	-0.85377693481412
7	103383	19.61	-0.42439560037995
7	103940	19.71	0.011767371269134
7	104497	19.81	0.44464851836491
7	105054	19.91	0.86486384400621
7	105619	20.01	1.2637899041136
7	106176	20.11	1.5
7	106733	20.21	1.5
7	107290	20.31	1.5
7	107847	20.41	1.5
7	108404	20.51	1.5
7	108961	20.61	1.5
7	109518	20.71	1.5
7	110075	20.81	1.5
7	110632	20.91	1.5
7	111197	21.01	1.5
7	111754	21.11	1.5
7	112311	21.21	1.5
7	112868	21.31	1.5
7	113425	21.41	1.5
7	113982	21.51	1.5
7	114539	21.61	1.5
7	115096	21.71	1.5
7	115653	21.81	1.5
7	116210	21.91	1.258091551777
7	116775	22.01	0.8462549163489
7	117332	22.11	0.41709956367568
7	117889	22.21	-0.018747163542116
7	118446	22.31	-0.45124369149361
7	119003	22.41	-0.87102520538537
7	119560	22.51	-1.2694848794591
7	120117	22.61	-1.5
7	120674	22.71	-1.5
7	121231	22.81	-1.5
7	121788	22.91	-1.5
7	122353	23.01	-1.5
7	122910	23.11	-1.5
7	123467	23.21	-1.5
7	124024	23.31	-1.5
7	124581	23.41	-1.5
7	125138	23.51	-1.5
7	125695	23.61	-1.5
7	126252	23.71	-1.5
7	126809	23.81	-1.5
7	127366	23.91	-1.5
7	127931	24.01	-1.5
7	128488	24.11	-1.5
7	129045	24.21	-1.5
7	129602	24.31	-1.5
7	130159	24.41	-1.2609239651112
7	130716	24.51	-0.8490461568448
7	131273	24.61	-0.41980696481052
7	131830	24.71	0.016157099446737
7	132387	24.81	0.44879633966076
7	132944	24.91	0.86873882266934
7	133509	25.01	1.26737155572
7	134066	25.11	1.5
7	134623	25.21	1.5
7	135180	25.31	1.5
7	135737	25.41	1.5
7	136294	25.51	1.5
7	136851	25.61	1.5
7	137408	25.71	1.5
7	137965	25.81	1.5
7	138522	25.91	1.5
7	139087	26.01	1.5
7	139644	26.11	1.5
7	140201	26.21	1.5
7	140758	26.31	1.5
7	141315	26.41	1.5
7	141872	26.51	1.5
7	142429	26.61	1.5
7	142986	26.71	1.5
7	143543	26.81	1.5
7	144100	26.91	1.2598728518634
7	144665	27.01	0.84801032251441
7	145222	27.11	0.41880224309152
7	145779	27.21	-0.017118277441824
7	146336	27.31	-0.44970455708397
7	146893	27.41	-0.86958730431876
7	147450	27.51	-1.2681558149826
7	148007	27.61	-1.5
7	148564	27.71	-1.5
7	149121	27.81	-1.5
7	149678	27.91	-1.5
7	150243	28.01	-1.5
7	150800	28.11	-1.5
7	151357	28.21	-1.5
7	151914	28.31	-1.5
7	152471	28.41	-1.5
7	153028	28.51	-1.5
7	153585	28.61	-1.5
7	154142	28.71	-1.5
7	154699	28.81	-1.5
7	155256	28.91	-1.5
7	155821	29.01	-1.5
7	156378	29.11	-1.5
7	156935	29.21	-1.5
7	157492	29.31	-1.5
7	158049	29.41	-1.2602629232513
7	158606	29.51	-0.84839472385599
7	159163	29.61	-0.41917509845245
7	159720	29.71	0.016761581287305
7	160277	29.81	0.44936751475852
7	160834	29.91	0.86927243012183
7	161399	30.01	1.267864773911
7	161956	30.11	1.5
7	162513	30.21	1.5
7	163070	30.31	1.5
7	163627	30.41	1.5
7	164184	30.51	1.5
7	164741	30.61	1.5
7	165298	30.71	1.5
7	165855	30.81	1.5
7	166412	30.91	1.5
7	166977	31.01	1.5
7	167534	31.11	1.5
7	168091	31.21	1.5
7	168648	31.31	1.5
7	169205	31.41	1.5
7	169762	31.51	1.5
7	170319	31.61	1.5
7	170876	31.71	1.5
7	171433	31.81	1.5
7	171990	31.91	1.2601181665204
7	172555	32.01	0.8482520712972
7	173112	32.11	0.41903673064365
7	173669	32.21	-0.016893952363397
7	174226	32.31	-0.44949259223633
7	174783	32.41	-0.8693892809368
7	175340	32.51	-1.2679727801776
7	175897	32.61	-1.5
7	176454	32.71	-1.5
7	177011	32.81	-1.5
7	177568	32.91	-1.5
7	178133	33.01	-1.5
7	178690	33.11	-1.5
7	179247	33.21	-1.5
7	179804	33.31	-1.5
7	180361	33.41	-1.5
7	180918	33.51	-1.5
7	181475	33.61	-1.5
6	232	1.11	-1.2391545567425e-07
6	788	1.21	-2.514333630188e-07
6	1344	1.31	-3.5153284727585e-07
6	1900	1.41	-4.2734420446777e-07
6	2456	1.51	-4.8187125401e-07
6	3012	1.61	-5.1795971955926e-07
6	3568	1.71	-5.3827413637464e-07
6	4124	1.81	-5.4528506154838e-07
6	4680	1.91	-5.4125663950799e-07
6	5244	2.01	-5.2824375984528e-07
6	5800	2.11	-5.080941889446e-07
6	6356	2.21	-4.8245141215375e-07
6	6912	2.31	-4.5276244975412e-07
6	7468	2.41	-4.202860282021e-07
6	8024	2.51	-3.8610643571246e-07
6	8580	2.61	-3.5114133822844e-07
6	9136	2.71	-3.1616025353287e-07
6	9692	2.81	-2.8179307776099e-07
6	10248	2.91	-2.4854536206931e-07
6	10812	3.01	-2.1681287876163e-07
6	11368	3.11	-1.8689298997288e-07
6	11924	3.21	-1.5899530581009e-07
6	12480	3.31	-1.3325838210676e-07
6	13036	3.41	-1.0975469422192e-07
6	13592	3.51	-8.8505203166278e-08
6	14148	3.61	-6.948575048682e-08
6	14704	3.71	-5.263665059374e-08
6	15260	3.81	-3.7870506730542e-08
6	15816	3.91	-2.5077895315917e-08
6	16380	4.01	-1.4133405557004e-08
6	16936	4.11	-4.9016790626411e-09
6	17492	4.21	2.7593927143243e-09
6	18048	4.31	8.9940499492513e-09
6	18604	4.41	1.3947598631603e-08
6	19160	4.51	1.7761081494427e-08
6	19716	4.61	2.0570567471623e-08
6	20272	4.71	2.2507151697937e-08
6	20828	4.81	2.3691626438449e-08
6	21384	4.91	2.4239099616352e-08
6	21949	5.01	2.4253310471067e-08
6	22506	5.11	0.0068264526728257
6	23063	5.21	0.074594836732089
6	23620	5.31	0.19005134681258
6	24177	5.41	0.34050272642077
6	24734	5.51	0.51301638947834
6	25291	5.61	0.6902545856434
6	25848	5.71	0.83572672600098
6	26405	5.81	0.95506454902292
6	26962	5.91	1.0529631292492
6	27527	6.01	1.133274063098
6	28084	6.11	1.1991570011418
6	28641	6.21	1.2532039573571
6	29198	6.31	1.2975412860019
6	29755	6.41	1.333913338177
6	30312	6.51	1.3635927249268
6	30869	6.61	1.3702053615898
6	31426	6.71	1.3272611926745
6	31983	6.81	1.2373810921854
6	32540	6.91	1.1040433755532
6	33105	7.01	0.93147092012096
6	33662	7.11	0.72451590565734
6	34219	7.21	0.48854318346834
6	34776	7.31	0.2293132962599
6	35333	7.41	-0.044839398398011
6	35890	7.51	-0.30626147443016
6	36447	7.61	-0.52071863005345
6	37004	7.71	-0.69664819306503
6	37561	7.81	-0.84097171097959
6	38118	7.91	-0.95936726353223
6	38683	8.01	-1.0564928537818
6	39240	8.11	-1.1361696666178
6	39797	8.21	-1.2015324045674
6	40354	8.31	-1.2551526155189
6	40911	8.41	-1.2991398644115
6	41468	8.51	-1.3352247292573
6	42025	8.61	-1.3648268867847
6	42582	8.71	-1.3891109663845
6	43139	8.81	-1.4090323697992
6	43696	8.91	-1.4253748592211
6	44261	9.01	-1.4387813926344
6	44818	9.11	-1.4497794195275
6	45375	9.21	-1.4588016321909
6	45932	9.31	-1.4662029890104
6	46489	9.41	-1.4722746794938
6	47046	9.51	-1.4696249146823
6	47603	9.61	-1.3967850639141
6	48160	9.71	-1.2587757641274
6	48717	9.81	-1.0660952217858
6	49274	9.91	-0.82923335017639
6	49839	10.01	-0.55852907832801
6	50396	10.11	-0.26404116068406
6	50953	10.21	0.03943269874469
6	51510	10.31	0.30182609756224
6	52067	10.41	0.51708007617997
6	52624	10.51	0.69366331158065
6	53181	10.61	0.83852306852847
6	53738	10.71	0.95735852386056
6	54295	10.81	1.0548449876072
6	54852	10.91	1.1348178424026
6	55417	11.01	1.2004234378704
6	55974	11.11	1.2542428765748
6	56531	11.21	1.2983935616166
6	57088	11.31	1.3346125010283
6	57645	11.41	1.3643246463978
6	58202	11.51	1.3886989543376
6	58759	11.61	1.4086943764163
6	59316	11.71	1.4250975869238
6	59873	11.81	1.4385539327762
6	60430	11.91	1.4345627372837
6	60995	12.01	1.3623449188774
6	61552	12.11	1.2299875654499
6	62109	12.21	1.0461448397812
6	62666	12.31	0.81967864249357
6	63223	12.41	0.55952045905059
6	63780	12.51	0.27454262949682
6	64337	12.61	-0.02234164487227
6	64894	12.71	-0.28780548057448
6	65451	12.81	-0.50557828687161
6	66008	12.91	-0.68422783827593
6	66573	13.01	-0.83078269404453
6	67130	13.11	-0.95100872081275
6	67687	13.21	-1.0496359374716
6	68244	13.31	-1.1305446069798
6	68801	13.41	-1.1969178964556
6	69358	13.51	-1.2513671116345
6	69915	13.61	-1.2960344327361
6	70472	13.71	-1.3326771936619
6	71029	13.81	-1.3627370202897
6	71586	13.91	-1.3873965479586
6	72151	14.01	-1.4076259495578
6	72708	14.11	-1.4242211047666
6	73265	14.21	-1.4378349121291
6	73822	14.31	-1.4490029758537
6	74379	14.41	-1.4542593951845
6	74936	14.51	-1.4067454390027
6	75493	14.61	-1.2938574955285
6	76050	14.71	-1.1248409052222
6	76607	14.81	-0.90912582142266
6	77164	14.91	-0.65618298375618
6	77729	15.01	-0.37539052553193
6	78286	15.11	-0.078063005083351
6	78843	15.21	0.20543869668366
6	79400	15.31	0.43800883574043
6	79957	15.41	0.62879735391697
6	80514	15.51	0.78531039043881
6	81071	15.61	0.91370559385808
6	81628	15.71	1.0190343806951
6	82185	15.81	1.1054406719047
6	82742	15.91	1.1763239259967
6	83307	16.01	1.2344728829817
6	83864	16.11	1.2821752809831
6	84421	16.21	1.3213078620836
6	84978	16.31	1.3534102084598
6	85535	16.41	1.3797453137308
6	86092	16.51	1.4013492725667
6	86649	16.61	1.4190720434691
6	87206	16.71	1.4336108884482
6	87763	16.81	1.4455378052084
6	88320	16.91	1.4502949065335
6	88885	17.01	1.3935559567532
6	89442	17.11	1.2733368701447
6	89999	17.21	1.098674244054
6	90556	17.31	0.87879676591527
6	91113	17.41	0.62298329276125
6	91670	17.51	0.34043137853565
6	92227	17.61	0.043031849081743
6	92784	17.71	-0.23417644595263
6	93341	17.81	-0.46158379949546
6	93898	17.91	-0.64813703535336
6	94463	18.01	-0.80117566522588
6	95020	18.11	-0.92672064505699
6	95577	18.21	-1.0297112558188
6	96134	18.31	-1.1141994282603
6	96691	18.41	-1.1835091568827
6	97248	18.51	-1.2403672749226
6	97805	18.61	-1.2870107353905
6	98362	18.71	-1.3252746188858
6	98919	18.81	-1.3566643306586
6	99476	18.91	-1.382414827345
6	100041	19.01	-1.4035392035215
6	100598	19.11	-1.4208685496044
6	101155	19.21	-1.4350846492011
6	101712	19.31	-1.4467468023362
6	102269	19.41	-1.4517201941775
6	102826	19.51	-1.3984004323884
6	103383	19.61	-1.280899381009
6	103940	19.71	-1.1083308503771
6	104497	19.81	-0.88999806036796
6	105054	19.91	-0.63525086466818
6	105619	20.01	-0.35335363991322
6	106176	20.11	-0.055983891306965
6	106733	20.21	0.22355126013309
6	107290	20.31	0.45286744637245
6	107847	20.41	0.64098658988812
6	108404	20.51	0.79530980944469
6	108961	20.61	0.92190860023926
6	109518	20.71	1.0257637030335
6	110075	20.81	1.1109610600446
6	110632	20.91	1.1808525670222
6	111197	21.01	1.2381879459468
6	111754	21.11	1.2852229265704
6	112311	21.21	1.32380799296
6	112868	21.31	1.3554611865732
6	113425	21.41	1.3814278301393
6	113982	21.51	1.402729522043
6	114539	21.61	1.4202043287796
6	115096	21.71	1.4345397567766
6	115653	21.81	1.4462998007627
6	116210	21.91	1.4512038299461
6	116775	22.01	1.3966149622046
6	117332	22.11	1.2781048258542
6	117889	22.21	1.104758616826
6	118446	22.31	0.88585193073989
6	119003	22.41	0.63070830476128
6	119560	22.51	0.3485673438103
6	120117	22.61	0.051185654371366
6	120674	22.71	-0.22748748564538
6	121231	22.81	-0.45609652227974
6	121788	22.91	-0.64363555681837
6	122353	23.01	-0.79748288496262
6	122910	23.11	-0.92369127904597
6	123467	23.21	-1.0272261205628
6	124024	23.31	-1.1121607517783
6	124581	23.41	-1.1818367320963
6	125138	23.51	-1.238995304092
6	125695	23.61	-1.2858852414524
6	126252	23.71	-1.3243513218473
6	126809	23.81	-1.355906905502
6	127366	23.91	-1.3817934749046
6	127931	24.01	-1.403029478104
6	128488	24.11	-1.4204503972248
6	129045	24.21	-1.434741618608
6	129602	24.31	-1.4464653977726
6	130159	24.41	-1.4513952146881
6	130716	24.51	-1.3972773206763
6	131273	24.61	-1.2791416668563
6	131830	24.71	-1.1060840673021
6	132387	24.81	-0.88739036841652
6	132944	24.91	-0.63239387292597
6	133509	25.01	-0.35034337810913
6	134066	25.11	-0.052966136909305
6	134623	25.21	0.2260268698226
6	135180	25.31	0.45489830857264
6	135737	25.41	0.64265260424108
6	136294	25.51	0.79667652148672
6	136851	25.61	0.92302978013947
6	137408	25.71	1.026683461059
6	137965	25.81	1.1117155819772
6	138522	25.91	1.1814715378073
6	139087	26.01	1.2386957175785
6	139644	26.11	1.2856394761656
6	140201	26.21	1.3241497087126
6	140758	26.31	1.3557415125099
6	141315	26.41	1.381657795045
6	141872	26.51	1.4029181733619
6	142429	26.61	1.4203590885685
6	142986	26.71	1.4346667137069
6	143543	26.81	1.4464039496644
6	144100	26.91	1.4513241957726
6	144665	27.01	1.3970315218256
6	145222	27.11	1.2787568961965
6	145779	27.21	1.1055921925461
6	146336	27.31	0.88681945319387
6	146893	27.41	0.63176835684509
6	147450	27.51	0.34968428947479
6	148007	27.61	0.052305397195695
6	148564	27.71	-0.22656890652364
6	149121	27.81	-0.45534296745835
6	149678	27.91	-0.64301737940227
6	150243	28.01	-0.79697576417033
6	150800	28.11	-0.92327526336611
6	151357	28.21	-1.0268848428069
6	151914	28.31	-1.1118807851517
6	152471	28.41	-1.1816070619506
6	153028	28.51	-1.2388068945789
6	153585	28.61	-1.2857306800289
6	154142	28.71	-1.3242245276459
6	154699	28.81	-1.3558028900945
6	155256	28.91	-1.3817081460427
6	155821	29.01	-1.4029594787171
6	156378	29.11	-1.4203929733469
6	156935	29.21	-1.4346945110272
6	157492	29.31	-1.4464267531491
6	158049	29.41	-1.4513505510322
6	158606	29.51	-1.3971227384758
6	159163	29.61	-1.2788996857299
6	159720	29.71	-1.1057747287548
6	160277	29.81	-0.88703132157519
6	160834	29.91	-0.63200048778356
6	161399	30.01	-0.34992887929945
6	161956	30.11	-0.052550599747647
6	162513	30.21	0.2263677550264
6	163070	30.31	0.45517795317025
6	163627	30.41	0.64288201021157
6	164184	30.51	0.7968647142846
6	164741	30.61	0.92318416378134
6	165298	30.71	1.0268101094169
6	165855	30.81	1.1118194777417
6	166412	30.91	1.1815567685211
6	166977	31.01	1.2387656364492
6	167534	31.11	1.2856968339921
6	168091	31.21	1.3241967621074
6	168648	31.31	1.3557801126822
6	169205	31.41	1.3816894606308
6	169762	31.51	1.4029441501705
6	170319	31.61	1.4203803985996
6	170876	31.71	1.4346841953547
6	171433	31.81	1.4464182907037
6	171990	31.91	1.451340770512
6	172555	32.01	1.397088887688
6	173112	32.11	1.2788466960817
6	173669	32.21	1.105706988989
6	174226	32.31	0.88695269654693
6	174783	32.41	0.6319143432556
6	175340	32.51	0.34983811123936
6	175897	32.61	0.052459604302157
6	176454	32.71	-0.22644240298604
6	177011	32.81	-0.45523919049693
6	177568	32.91	-0.64293224614822
6	178133	33.01	-0.7969059252499
6	178690	33.11	-0.92321797112582
6	179247	33.21	-1.0268378432144
6	179804	33.31	-1.1118422291158
6	180361	33.41	-1.181575432572
6	180918	33.51	-1.2387809474717
6	181475	33.61	-1.2857093943634
5	232	1.11	36.55
5	788	1.21	36.55
5	1344	1.31	36.55
5	1900	1.41	36.55
5	2456	1.51	36.55
5	3012	1.61	36.55
5	3568	1.71	36.55
5	4124	1.81	36.55
5	4680	1.91	36.55
5	5244	2.01	36.55
5	5800	2.11	36.55
5	6356	2.21	36.55
5	6912	2.31	36.55
5	7468	2.41	36.55
5	8024	2.51	36.55
5	8580	2.61	36.55
5	9136	2.71	36.55
5	9692	2.81	36.55
5	10248	2.91	36.55
5	10812	3.01	36.55
5	11368	3.11	36.55
5	11924	3.21	36.55
5	12480	3.31	36.55
5	13036	3.41	36.55
5	13592	3.51	36.55
5	14148	3.61	36.55
5	14704	3.71	36.55
5	15260	3.81	36.55
5	15816	3.91	36.55
5	16380	4.01	36.55
5	16936	4.11	36.55
5	17492	4.21	36.55
5	18048	4.31	36.55
5	18604	4.41	36.55
5	19160	4.51	36.55
5	19716	4.61	36.55
5	20272	4.71	36.55
5	20828	4.81	36.55
5	21384	4.91	36.55
5	21949	5.01	36.55
5	22506	5.11	36.55
5	23063	5.21	36.55
5	23620	5.31	36.55
5	24177	5.41	36.55
5	24734	5.51	36.55
5	25291	5.61	36.55
5	25848	5.71	36.55
5	26405	5.81	36.55
5	26962	5.91	36.55
5	27527	6.01	36.55
5	28084	6.11	36.55
5	28641	6.21	36.55
5	29198	6.31	36.55
5	29755	6.41	36.55
5	30312	6.51	36.55
5	30869	6.61	36.55
5	31426	6.71	36.55
5	31983	6.81	36.55
5	32540	6.91	36.55
5	33105	7.01	36.55
5	33662	7.11	36.55
5	34219	7.21	36.55
5	34776	7.31	36.55
5	35333	7.41	36.55
5	35890	7.51	36.55
5	36447	7.61	36.55
5	37004	7.71	36.55
5	37561	7.81	36.55
5	38118	7.91	36.55
5	38683	8.01	36.55
5	39240	8.11	36.55
5	39797	8.21	36.55
5	40354	8.31	36.55
5	40911	8.41	36.55
5	41468	8.51	36.55
5	42025	8.61	36.55
5	42582	8.71	36.55
5	43139	8.81	36.55
5	43696	8.91	36.55
5	44261	9.01	36.55
5	44818	9.11	36.55
5	45375	9.21	36.55
5	45932	9.31	36.55
5	46489	9.41	36.55
5	47046	9.51	36.55
5	47603	9.61	36.55
5	48160	9.71	36.55
5	48717	9.81	36.55
5	49274	9.91	36.55
5	49839	10.01	36.55
5	50396	10.11	36.55
5	50953	10.21	36.55
5	51510	10.31	36.55
5	52067	10.41	36.55
5	52624	10.51	36.55
5	53181	10.61	36.55
5	53738	10.71	36.55
5	54295	10.81	36.55
5	54852	10.91	36.55
5	55417	11.01	36.55
5	55974	11.11	36.55
5	56531	11.21	36.55
5	57088	11.31	36.55
5	57645	11.41	36.55
5	58202	11.51	36.55
5	58759	11.61	36.55
5	59316	11.71	36.55
5	59873	11.81	36.55
5	60430	11.91	36.55
5	60995	12.01	36.55
5	61552	12.11	36.55
5	62109	12.21	36.55
5	62666	12.31	36.55
5	63223	12.41	36.55
5	63780	12.51	36.55
5	64337	12.61	36.55
5	64894	12.71	36.55
5	65451	12.81	36.55
5	66008	12.91	36.55
5	66573	13.01	36.55
5	67130	13.11	36.55
5	67687	13.21	36.55
5	68244	13.31	36.55
5	68801	13.41	36.55
5	69358	13.51	36.55
5	69915	13.61	36.55
5	70472	13.71	36.55
5	71029	13.81	36.55
5	71586	13.91	36.55
5	72151	14.01	36.55
5	72708	14.11	36.55
5	73265	14.21	36.55
5	73822	14.31	36.55
5	74379	14.41	36.55
5	74936	14.51	36.55
5	75493	14.61	36.55
5	76050	14.71	36.55
5	76607	14.81	36.55
5	77164	14.91	36.55
5	77729	15.01	36.55
5	78286	15.11	36.55
5	78843	15.21	36.55
5	79400	15.31	36.55
5	79957	15.41	36.55
5	80514	15.51	36.55
5	81071	15.61	36.55
5	81628	15.71	36.55
5	82185	15.81	36.55
5	82742	15.91	36.55
5	83307	16.01	36.55
5	83864	16.11	36.55
5	84421	16.21	36.55
5	84978	16.31	36.55
5	85535	16.41	36.55
5	86092	16.51	36.55
5	86649	16.61	36.55
5	87206	16.71	36.55
5	87763	16.81	36.55
5	88320	16.91	36.55
5	88885	17.01	36.55
5	89442	17.11	36.55
5	89999	17.21	36.55
5	90556	17.31	36.55
5	91113	17.41	36.55
5	91670	17.51	36.55
5	92227	17.61	36.55
5	92784	17.71	36.55
5	93341	17.81	36.55
5	93898	17.91	36.55
5	94463	18.01	36.55
5	95020	18.11	36.55
5	95577	18.21	36.55
5	96134	18.31	36.55
5	96691	18.41	36.55
5	97248	18.51	36.55
5	97805	18.61	36.55
5	98362	18.71	36.55
5	98919	18.81	36.55
5	99476	18.91	36.55
5	100041	19.01	36.55
5	100598	19.11	36.55
5	101155	19.21	36.55
5	101712	19.31	36.55
5	102269	19.41	36.55
5	102826	19.51	36.55
5	103383	19.61	36.55
5	103940	19.71	36.55
5	104497	19.81	36.55
5	105054	19.91	36.55
5	105619	20.01	36.55
5	106176	20.11	36.55
5	106733	20.21	36.55
5	107290	20.31	36.55
5	107847	20.41	36.55
5	108404	20.51	36.55
5	108961	20.61	36.55
5	109518	20.71	36.55
5	110075	20.81	36.55
5	110632	20.91	36.55
5	111197	21.01	36.55
5	111754	21.11	36.55
5	112311	21.21	36.55
5	112868	21.31	36.55
5	113425	21.41	36.55
5	113982	21.51	36.55
5	114539	21.61	36.55
5	115096	21.71	36.55
5	115653	21.81	36.55
5	116210	21.91	36.55
5	116775	22.01	36.55
5	117332	22.11	36.55
5	117889	22.21	36.55
5	118446	22.31	36.55
5	119003	22.41	36.55
5	119560	22.51	36.55
5	120117	22.61	36.55
5	120674	22.71	36.55
5	121231	22.81	36.55
5	121788	22.91	36.55
5	122353	23.01	36.55
5	122910	23.11	36.55
5	123467	23.21	36.55
5	124024	23.31	36.55
5	124581	23.41	36.55
5	125138	23.51	36.55
5	125695	23.61	36.55
5	126252	23.71	36.55
5	126809	23.81	36.55
5	127366	23.91	36.55
5	127931	24.01	36.55
5	128488	24.11	36.55
5	129045	24.21	36.55
5	129602	24.31	36.55
5	130159	24.41	36.55
5	130716	24.51	36.55
5	131273	24.61	36.55
5	131830	24.71	36.55
5	132387	24.81	36.55
5	132944	24.91	36.55
5	133509	25.01	36.55
5	134066	25.11	36.55
5	134623	25.21	36.55
5	135180	25.31	36.55
5	135737	25.41	36.55
5	136294	25.51	36.55
5	136851	25.61	36.55
5	137408	25.71	36.55
5	137965	25.81	36.55
5	138522	25.91	36.55
5	139087	26.01	36.55
5	139644	26.11	36.55
5	140201	26.21	36.55
5	140758	26.31	36.55
5	141315	26.41	36.55
5	141872	26.51	36.55
5	142429	26.61	36.55
5	142986	26.71	36.55
5	143543	26.81	36.55
5	144100	26.91	36.55
5	144665	27.01	36.55
5	145222	27.11	36.55
5	145779	27.21	36.55
5	146336	27.31	36.55
5	146893	27.41	36.55
5	147450	27.51	36.55
5	148007	27.61	36.55
5	148564	27.71	36.55
5	149121	27.81	36.55
5	149678	27.91	36.55
5	150243	28.01	36.55
5	150800	28.11	36.55
5	151357	28.21	36.55
5	151914	28.31	36.55
5	152471	28.41	36.55
5	153028	28.51	36.55
5	153585	28.61	36.55
5	154142	28.71	36.55
5	154699	28.81	36.55
5	155256	28.91	36.55
5	155821	29.01	36.55
5	156378	29.11	36.55
5	156935	29.21	36.55
5	157492	29.31	36.55
5	158049	29.41	36.55
5	158606	29.51	36.55
5	159163	29.61	36.55
5	159720	29.71	36.55
5	160277	29.81	36.55
5	160834	29.91	36.55
5	161399	30.01	36.55
5	161956	30.11	36.55
5	162513	30.21	36.55
5	163070	30.31	36.55
5	163627	30.41	36.55
5	164184	30.51	36.55
5	164741	30.61	36.55
5	165298	30.71	36.55
5	165855	30.81	36.55
5	166412	30.91	36.55
5	166977	31.01	36.55
5	167534	31.11	36.55
5	168091	31.21	36.55
5	168648	31.31	36.55
5	169205	31.41	36.55
5	169762	31.51	36.55
5	170319	31.61	36.55
5	170876	31.71	36.55
5	171433	31.81	36.55
5	171990	31.91	36.55
5	172555	32.01	36.55
5	173112	32.11	36.55
5	173669	32.21	36.55
5	174226	32.31	36.55
5	174783	32.41	36.55
5	175340	32.51	36.55
5	175897	32.61	36.55
5	176454	32.71	36.55
5	177011	32.81	36.55
5	177568	32.91	36.55
5	178133	33.01	36.55
5	178690	33.11	36.55
5	179247	33.21	36.55
5	179804	33.31	36.55
5	180361	33.41	36.55
5	180918	33.51	36.55
5	181475	33.61	36.55
4	232	1.11	188.27519912693
4	788	1.21	191.05297698772
4	1344	1.31	193.83075484579
4	1900	1.41	196.6085327002
4	2456	1.51	199.38631055022
4	3012	1.61	202.16408839534
4	3568	1.71	204.94186623525
4	4124	1.81	207.71964406976
4	4680	1.91	210.49742189883
4	5244	2.01	213.2751997225
4	5800	2.11	216.05297754094
4	6356	2.21	218.83075535435
4	6912	2.31	221.60853316299
4	7468	2.41	224.38631096716
4	8024	2.51	227.16408876721
4	8580	2.61	229.94186656346
4	9136	2.71	232.71964435627
4	9692	2.81	235.49742214599
4	10248	2.91	238.27519993296
4	10812	3.01	241.0529777175
4	11368	3.11	243.83075549994
4	11924	3.21	246.60853328056
4	12480	3.31	249.38631105965
4	13036	3.41	252.16408883745
4	13592	3.51	254.94186661419
4	14148	3.61	257.71964439009
4	14704	3.71	260.49742216533
4	15260	3.81	263.27519994007
4	15816	3.91	266.05297771446
4	16380	4.01	268.83075548862
4	16936	4.11	271.60853326265
4	17492	4.21	274.38631103666
4	18048	4.31	277.1640888107
4	18604	4.41	279.94186658484
4	19160	4.51	282.71964435913
4	19716	4.61	285.4974221336
4	20272	4.71	288.27519990829
4	20828	4.81	291.0529776832
4	21384	4.91	293.83075545835
4	21949	5.01	296.60853323374
4	22506	5.11	299.38631237466
4	23063	5.21	302.16431801752
4	23620	5.31	304.94332375399
4	24177	5.41	307.72455421171
4	24734	5.51	310.50955937438
4	25291	5.61	313.30007410442
4	25848	5.71	316.09778388629
4	26405	5.81	318.90409076042
4	26962	5.91	321.72014502006
4	27527	6.01	324.54689030634
4	28084	6.11	327.38510073365
4	28641	6.21	330.23541134541
4	29198	6.31	333.09834309841
4	29755	6.41	335.97432335868
4	30312	6.51	338.86370268353
4	30869	6.61	341.76673882287
4	31426	6.71	344.68338534376
4	31983	6.81	347.61311572965
4	32540	6.91	350.55494120422
4	33105	7.01	353.50744705465
4	33662	7.11	356.46883616646
4	34219	7.21	359.43697861368
4	34776	7.31	362.40946613698
4	35333	7.41	365.38367079938
4	35890	7.51	368.35687967364
4	36447	7.61	371.3265949534
4	37004	7.71	374.29074949336
4	37561	7.81	377.24764751436
4	38118	7.91	380.19589788687
4	38683	8.01	383.13435940015
4	39240	8.11	386.0620958639
4	39797	8.21	388.97833927599
4	40354	8.31	391.8824596072
4	40911	8.41	394.77394001411
4	41468	8.51	397.65235650511
4	42025	8.61	400.51736125941
4	42582	8.71	403.3686689428
4	43139	8.81	406.20604548185
4	43696	8.91	409.02929885483
4	44261	9.01	411.83827153704
4	44818	9.11	414.63283430334
4	45375	9.21	417.41288114413
4	45932	9.31	420.1783250946
4	46489	9.41	422.92909481332
4	47046	9.51	425.66513403828
4	47603	9.61	428.38663806986
4	48160	9.71	431.09446822939
4	48717	9.81	433.79011627925
4	49274	9.91	436.47559933249
4	49839	10.01	439.15335522863
4	50396	10.11	441.8261396845
4	50953	10.21	444.49692545936
4	51510	10.31	447.16864076712
4	52067	10.41	449.84380691693
4	52624	10.51	452.52449873465
4	53181	10.61	455.21241830016
4	53738	10.71	457.90896191176
4	54295	10.81	460.61527502043
4	54852	10.91	463.33229729491
4	55417	11.01	466.06079959085
4	55974	11.11	468.80141427838
4	56531	11.21	471.55466012126
4	57088	11.31	474.32096268647
4	57645	11.41	477.10067108714
4	58202	11.51	479.89407171763
4	58759	11.61	482.70139952109
4	59316	11.71	485.52284723272
4	59873	11.81	488.3585729625
4	60430	11.91	491.2086916163
4	60995	12.01	494.07299816435
4	61552	12.11	496.95064729068
4	62109	12.21	499.84020989394
4	62666	12.31	502.73976008352
4	63223	12.41	505.64696397066
4	63780	12.51	508.55916889177
4	64337	12.61	511.47349263866
4	64894	12.71	514.38704646217
4	65451	12.81	517.29728458789
4	66008	12.91	520.20210791107
4	66573	13.01	523.09979443467
4	67130	13.11	525.98893152137
4	67687	13.21	528.86836031656
4	68244	13.31	531.73713015579
4	68801	13.41	534.59446116314
4	69358	13.51	537.43971356868
4	69915	13.61	540.27236253828
4	70472	13.71	543.09197752511
4	71029	13.81	545.89820533086
4	71586	13.91	548.69075620984
4	72151	14.01	551.46939246971
4	72708	14.11	554.23391911995
4	73265	14.21	556.98417620041
4	73822	14.31	559.72003248807
4	74379	14.41	562.44138111538
4	74936	14.51	565.14828862018
4	75493	14.61	567.84137030853
4	76050	14.71	570.52186991501
4	76607	14.81	573.19157325699
4	77164	14.91	575.85271381866
4	77729	15.01	578.50787820212
4	78286	15.11	581.15991232574
4	78843	15.21	583.81175906327
4	79400	15.31	586.46612756794
4	79957	15.41	589.1252595755
4	80514	15.51	591.79099409005
4	81071	15.61	594.46483973549
4	81628	15.71	597.14803410887
4	82185	15.81	599.84159247082
4	82742	15.91	602.54634768867
4	83307	16.01	605.26298300373
4	83864	16.11	607.99205891185
4	84421	16.21	610.73403521482
4	84978	16.31	613.48928911028
4	85535	16.41	616.25813003168
4	86092	16.51	619.0408118222
4	86649	16.61	621.83754272167
4	87206	16.71	624.64849355929
4	87763	16.81	627.4738044745
4	88320	16.91	630.31358941598
4	88885	17.01	633.16775187973
4	89442	17.11	636.03559349551
4	89999	17.21	638.91580060206
4	90556	17.31	641.80653390255
4	91113	17.41	644.70552088494
4	91670	17.51	647.61014847465
4	92227	17.61	650.51755520427
4	92784	17.71	653.42481542873
4	93341	17.81	656.32927688385
4	93898	17.91	659.2287475978
4	94463	18.01	662.12142939022
4	95020	18.11	665.0058471269
4	95577	18.21	667.880790684
4	96134	18.31	670.74526733849
4	96691	18.41	673.59846271172
4	97248	18.51	676.43970872954
4	97805	18.61	679.26845733846
4	98362	18.71	682.08425894374
4	98919	18.81	684.8867447211
4	99476	18.91	687.67561210615
4	100041	19.01	690.45061289072
4	100598	19.11	693.21154345767
4	101155	19.21	695.95823677001
4	101712	19.31	698.69055579923
4	102269	19.41	701.40838905296
4	102826	19.51	704.1118216971
4	103383	19.61	706.80152126865
4	103940	19.71	709.47877550177
4	104497	19.81	712.14540385618
4	105054	19.91	714.80366435853
4	105619	20.01	717.45616024805
4	106176	20.11	720.105747203
4	106733	20.21	722.75535721534
4	107290	20.31	725.40766358122
4	107847	20.41	728.06487667162
4	108404	20.51	730.72880976066
4	108961	20.61	733.40095036465
4	109518	20.71	736.08251876508
4	110075	20.81	738.77451601779
4	110632	20.91	741.47776333724
4	111197	21.01	744.19293440533
4	111754	21.11	746.92058187582
4	112311	21.21	749.66115911733
4	112868	21.31	752.41503805001
4	113425	21.41	755.18252377793
4	113982	21.51	757.96386659269
4	114539	21.61	760.75927182059
4	115096	21.71	763.56890790069
4	115653	21.81	766.39291301171
4	116210	21.91	769.23139955966
4	116775	22.01	772.08427825233
4	117332	22.11	774.95087012998
4	117889	22.21	777.8298778324
4	118446	22.31	780.71947453253
4	119003	22.41	783.61739682141
4	119560	22.51	786.52103780247
4	120117	22.61	789.42753964123
4	120674	22.71	792.33397269036
4	121231	22.81	795.23767144482
4	121788	22.91	798.13643234979
4	122353	23.01	801.02844772283
4	122910	23.11	803.91223463472
4	123467	23.21	806.78657656698
4	124024	23.31	809.65047555077
4	124581	23.41	812.50311290403
4	125138	23.51	815.34381702233
4	125695	23.61	818.17203695611
4	126252	23.71	820.98732073485
4	126809	23.81	823.78929758529
4	127366	23.91	826.57766334422
4	127931	24.01	829.35216849187
4	128488	24.11	832.11260833512
4	129045	24.21	834.85881495432
4	129602	24.31	837.59065059686
4	130159	24.41	840.30800319519
4	130716	24.51	843.01096050986
4	131273	24.61	845.70019726153
4	131830	24.71	848.37700723807
4	132387	24.81	851.0432145324
4	132944	24.91	853.70108055593
4	133509	25.01	856.35321084786
4	134066	25.11	859.00246244233
4	134623	25.21	861.65176585657
4	135180	25.31	864.30378948666
4	135737	25.41	866.96073941669
4	136294	25.51	869.62442540401
4	136851	25.61	872.29633207997
4	137408	25.71	874.97767735939
4	137965	25.81	877.6694603566
4	138522	25.91	880.37250069338
4	139087	26.01	883.08747074501
4	139644	26.11	885.81492209346
4	140201	26.21	888.55530722803
4	140758	26.31	891.30899734755
4	141315	26.41	894.07629696436
4	141872	26.51	896.85745588464
4	142429	26.61	899.65267903646
4	142986	26.71	902.46213453222
4	143543	26.81	905.28596028262
4	144100	26.91	908.12426848082
4	144665	27.01	910.97697079785
4	145222	27.11	913.84339093992
4	145779	27.21	916.72223379345
4	146336	27.31	919.61167425088
4	146893	27.41	922.50945015948
4	147450	27.51	925.41295547633
4	148007	27.61	928.31933287028
4	148564	27.71	931.22565214693
4	149121	27.81	934.12924598305
4	149678	27.91	937.02790923318
4	150243	28.01	939.91983290997
4	150800	28.11	942.80353301372
4	151357	28.21	945.67779214781
4	151914	28.31	948.54161162299
4	152471	28.41	951.39417216623
4	153028	28.51	954.23480168829
4	153585	28.61	957.06294884191
4	154142	28.71	959.8781613303
4	154699	28.81	962.68006811255
4	155256	28.91	965.4683648059
4	155821	29.01	968.24280171045
4	156378	29.11	971.00317398532
4	156935	29.21	973.74931358964
4	157492	29.31	976.48108267138
4	158049	29.41	979.19836908398
4	158606	29.51	981.90126094549
4	159163	29.61	984.59043396589
4	159720	29.71	987.26718276679
4	160277	29.81	989.93333207921
4	160834	29.91	992.59114378079
4	161399	30.01	995.24322372749
4	161956	30.11	997.89242914027
4	162513	30.21	1000.5416903333
4	163070	30.31	1003.193675028
4	163627	30.41	1005.8505887181
4	164184	30.51	1008.5142406767
4	164741	30.61	1011.186115138
4	165298	30.71	1013.8674296908
4	165855	30.81	1016.5591831821
4	166412	30.91	1019.2621950145
4	166977	31.01	1021.9771373833
4	167534	31.11	1024.7045617228
4	168091	31.21	1027.4449204013
4	168648	31.31	1030.1985845183
4	169205	31.41	1032.9658585047
4	169762	31.51	1035.7469920997
4	170319	31.61	1038.5421901767
4	170876	31.71	1041.3516208031
4	171433	31.81	1044.1754218525
4	171990	31.91	1047.013705489
4	172555	32.01	1049.8663835162
4	173112	32.11	1052.7327800074
4	173669	32.21	1055.6116001584
4	174226	32.31	1058.5010190986
4	174783	32.41	1061.3987748482
4	175340	32.51	1064.3022614817
4	175897	32.61	1067.2086217375
4	176454	32.71	1070.1149253457
4	177011	32.81	1073.0185047328
4	177568	32.91	1075.9171545342
4	178133	33.01	1078.8090655828
4	178690	33.11	1081.6927537316
4	179247	33.21	1084.5670014629
4	179804	33.31	1087.4308099884
4	180361	33.41	1090.2833599536
4	180918	33.51	1093.1239792024
4	181475	33.61	1095.952116333
3	232	1.11	27.777778619612
3	788	1.21	27.777778599967
3	1344	1.31	27.777778569105
3	1900	1.41	27.777778529595
3	2456	1.51	27.777778483698
3	3012	1.61	27.777778433385
3	3568	1.71	27.777778380352
3	4124	1.81	27.777778326039
3	4680	1.91	27.77777827165
3	5244	2.01	27.777778218173
3	5800	2.11	27.777778166406
3	6356	2.21	27.777778116967
3	6912	2.31	27.777778070327
3	7468	2.41	27.777778026819
3	8024	2.51	27.77777798666
3	8580	2.61	27.77777794997
3	9136	2.71	27.777777916782
3	9692	2.81	27.777777887063
3	10248	2.91	27.777777860724
3	10812	3.01	27.777777837628
3	11368	3.11	27.777777817609
3	11924	3.21	27.777777800471
3	12480	3.31	27.777777786005
3	13036	3.41	27.777777773991
3	13592	3.51	27.777777764203
3	14148	3.61	27.777777756416
3	14704	3.71	27.777777750412
3	15260	3.81	27.777777745977
3	15816	3.91	27.77777774291
3	16380	4.01	27.777777741018
3	16936	4.11	27.777777740126
3	17492	4.21	27.77777774007
3	18048	4.31	27.7777777407
3	18604	4.41	27.777777741882
3	19160	4.51	27.777777743495
3	19716	4.61	27.777777745434
3	20272	4.71	27.777777747604
3	20828	4.81	27.777777749925
3	21384	4.91	27.777777752329
3	21949	5.01	27.777777754758
3	22506	5.11	27.777846021452
3	23063	5.21	27.782059596653
3	23620	5.31	27.795775862036
3	24177	5.41	27.823056285431
3	24734	5.51	27.866721940626
3	25291	5.61	27.928063782047
3	25848	5.71	28.005327711868
3	26405	5.81	28.095658800357
3	26962	5.91	28.196709510244
3	27527	6.01	28.30655404332
3	28084	6.11	28.423612574297
3	28641	6.21	28.54658909619
3	29198	6.31	28.674420431867
3	29755	6.41	28.80623440578
3	30312	6.51	28.941313946553
3	30869	6.61	29.078388981218
3	31426	6.71	29.213351897492
3	31983	6.81	29.341385131305
3	32540	6.91	29.457981732945
3	33105	7.01	29.559024895864
3	33662	7.11	29.640856051762
3	34219	7.21	29.700331349918
3	34776	7.31	29.734866440411
3	35333	7.41	29.742492528104
3	35890	7.51	29.72320356612
3	36447	7.61	29.680432143932
3	37004	7.71	29.618396925437
3	37561	7.81	29.540558684394
3	38118	7.91	29.449756460671
3	38683	8.01	29.348319255796
3	39240	8.11	29.238157662213
3	39797	8.21	29.120839031188
3	40354	8.31	28.997649136664
3	40911	8.41	28.86964276111
3	41468	8.51	28.737685193533
3	42025	8.61	28.602486272297
3	42582	8.71	28.464628312097
3	43139	8.81	28.324589013804
3	43696	8.91	28.182760258515
3	44261	9.01	28.039463525222
3	44818	9.11	27.894962538668
3	45375	9.21	27.749473644999
3	45932	9.31	27.603174323409
3	46489	9.41	27.456210168651
3	47046	9.51	27.308798307138
3	47603	9.61	27.165456941051
3	48160	9.71	27.033088438825
3	48717	9.81	26.917629526736
3	49274	9.91	26.823966096352
3	49839	10.01	26.755942052805
3	50396	10.11	26.716381687291
3	50953	10.21	26.707072901132
3	51510	10.31	26.725876201723
3	52067	10.41	26.768249212414
3	52624	10.51	26.829957594714
3	53181	10.61	26.90752771624
3	53738	10.71	26.998109988574
3	54295	10.81	27.099366756701
3	54852	10.91	27.209380329303
3	55417	11.01	27.326577531569
3	55974	11.11	27.449667812217
3	56531	11.21	27.577592469696
3	57088	11.31	27.709482999991
3	57645	11.41	27.844626927306
3	58202	11.51	27.982439773336
3	58759	11.61	28.122442062297
3	59316	11.71	28.264240457043
3	59873	11.81	28.407512284116
3	60430	11.91	28.5515861915
3	60995	12.01	28.691427297144
3	61552	12.11	28.820647386679
3	62109	12.21	28.933709262078
3	62666	12.31	29.025954034973
3	63223	12.41	29.093614170539
3	63780	12.51	29.133813231597
3	64337	12.61	29.144595455085
3	64894	12.71	29.127327372936
3	65451	12.81	29.086213776084
3	66008	12.91	29.025538551786
3	66573	13.01	28.948815979671
3	67130	13.11	28.858928993054
3	67687	13.21	28.758242601384
3	68244	13.31	28.648696936139
3	68801	13.41	28.531883580877
3	69358	13.51	28.409108188466
3	69915	13.61	28.281441849017
3	70472	13.71	28.14976322948
3	71029	13.81	28.014793142794
3	71586	13.91	27.877122906629
3	72151	14.01	27.737237607429
3	72708	14.11	27.595535185033
3	73265	14.21	27.452342088714
3	73822	14.31	27.307926120577
3	74379	14.41	27.162546024449
3	74936	14.51	27.019330871672
3	75493	14.61	26.884559196285
3	76050	14.71	26.764258967301
3	76607	14.81	26.663521929862
3	77164	14.91	26.586493202078
3	77729	15.01	26.536374688625
3	78286	15.11	26.515419708568
3	78843	15.21	26.523668857685
3	79400	15.31	26.557383788157
3	79957	15.41	26.611989529068
3	80514	15.51	26.683733010807
3	81071	15.61	26.769535409097
3	81628	15.71	26.866871015679
3	82185	15.81	26.973667870074
3	82742	15.91	27.088226243028
3	83307	16.01	27.209151764536
3	83864	16.11	27.335300565535
3	84421	16.21	27.465734274985
3	84978	16.31	27.599683101797
3	85535	16.41	27.736515549161
3	86092	16.51	27.875713569743
3	86649	16.61	28.016852184292
3	87206	16.71	28.159582761803
3	87763	16.81	28.303619303423
3	88320	16.91	28.448676617794
3	88885	17.01	28.590971447913
3	89442	17.11	28.724006207991
3	89999	17.21	28.841930784337
3	90556	17.31	28.939810791426
3	91113	17.41	29.013638834762
3	91670	17.51	29.060332154734
3	92227	17.61	29.077746642843
3	92784	17.71	29.066350790361
3	93341	17.81	29.030054467132
3	93898	17.91	28.973331085061
3	94463	18.01	28.899850399997
3	95020	18.11	28.812622889912
3	95577	18.21	28.714118195293
3	96134	18.31	28.606362281514
3	96691	18.41	28.491017145825
3	97248	18.51	28.369446204845
3	97805	18.61	28.242767935079
3	98362	18.71	28.111899876827
3	98919	18.81	27.977594732713
3	99476	18.91	27.840469981056
3	100041	19.01	27.701032169144
3	100598	19.11	27.559696842186
3	101155	19.21	27.416804891984
3	101712	19.31	27.272635968552
3	102269	19.41	27.127465418657
3	102826	19.51	26.984833896344
3	103383	19.61	26.851159734065
3	103940	19.71	26.732358896103
3	104497	19.81	26.633424036685
3	105054	19.91	26.558413554113
3	105619	20.01	26.510454337265
3	106176	20.11	26.4917309481
3	106733	20.21	26.50196337238
3	107290	20.31	26.53730527926
3	107847	20.41	26.593245707503
3	108404	20.51	26.666084097724
3	108961	20.61	26.752784702327
3	109518	20.71	26.85085715093
3	110075	20.81	26.958258472424
3	110632	20.91	27.073312718935
3	111197	21.01	27.194645029473
3	111754	21.11	27.321127539161
3	112311	21.21	27.451835005966
3	112868	21.31	27.58600840916
3	113425	21.41	27.723025087377
3	113982	21.51	27.862374241425
3	114539	21.61	28.003636838057
3	115096	21.71	28.146469124058
3	115653	21.81	28.290589102065
3	116210	21.91	28.435718002991
3	116775	22.01	28.578225822974
3	117332	22.11	28.711663912643
3	117889	22.21	28.83014072939
3	118446	22.31	28.928685230703
3	119003	22.41	29.003257937223
3	119560	22.51	29.050748330675
3	120117	22.61	29.068986857173
3	120674	22.71	29.058323427182
3	121231	22.81	29.022627945499
3	121788	22.91	28.966397462768
3	122353	23.01	28.89332112684
3	122910	23.11	28.806425323882
3	123467	23.21	28.70819274464
3	124024	23.31	28.600660060247
3	124581	23.41	28.485498050406
3	125138	23.51	28.364077336405
3	125695	23.61	28.237522305085
3	126252	23.71	28.106755345282
3	126809	23.81	27.97253313711
3	127366	23.91	27.835476421811
3	127931	24.01	27.696094423411
3	128488	24.11	27.554804882971
3	129045	24.21	27.411950493662
3	129602	24.31	27.267812383245
3	130159	24.41	27.122668052051
3	130716	24.51	26.980114349492
3	131273	24.61	26.846588675637
3	131830	24.71	26.727991635756
3	132387	24.81	26.629302292308
3	132944	24.91	26.554567145367
3	133509	25.01	26.506902788277
3	134066	25.11	26.488484344384
3	134623	25.21	26.498987841018
3	135180	25.31	26.534552121643
3	135737	25.41	26.590674973809
3	136294	25.51	26.663663015186
3	136851	25.61	26.75048638586
3	137408	25.71	26.8486595454
3	137965	25.81	26.956143484941
3	138522	25.91	27.071265507027
3	139087	26.01	27.192653417141
3	139644	26.11	27.319181537848
3	140201	26.21	27.449926421574
3	140758	26.31	27.584130519676
3	141315	26.41	27.721172378408
3	141872	26.51	27.86054218925
3	142429	26.61	28.001821731647
3	142986	26.71	28.144667919078
3	143543	26.81	28.288799301099
3	144100	26.91	28.433937906563
3	144665	27.01	28.576474582405
3	145222	27.11	28.709967753931
3	145779	27.21	28.828520179047
3	146336	27.31	28.927155771518
3	146893	27.41	29.001830636677
3	147450	27.51	29.049430435655
3	148007	27.61	29.067782111948
3	148564	27.71	29.057219263808
3	149121	27.81	29.021606294275
3	149678	27.91	28.965443500247
3	150243	28.01	28.892422692631
3	150800	28.11	28.805572442229
3	151357	28.21	28.707377231949
3	151914	28.31	28.599875203121
3	152471	28.41	28.48473834152
3	153028	28.51	28.363338257835
3	153585	28.61	28.23680015056
3	154142	28.71	28.106047074368
3	154699	28.81	27.971836255593
3	155256	28.91	27.834788883566
3	155821	29.01	27.695414549904
3	156378	29.11	27.554131297218
3	156935	29.21	27.411282066058
3	157492	29.31	27.267148187119
3	158049	29.41	27.122007456828
3	158606	29.51	26.979464462325
3	159163	29.61	26.84595922909
3	159720	29.71	26.727390247301
3	160277	29.81	26.628734707679
3	160834	29.91	26.554037471766
3	161399	30.01	26.506413715074
3	161956	30.11	26.488037261118
3	162513	30.21	26.498578083731
3	163070	30.31	26.534172984659
3	163627	30.41	26.590320956139
3	164184	30.51	26.663329604102
3	164741	30.61	26.750169879354
3	165298	30.71	26.848356906536
3	165855	30.81	26.955852222374
3	166412	30.91	27.070983576984
3	166977	31.01	27.19237914302
3	167534	31.11	27.318913544249
3	168091	31.21	27.449663580191
3	168648	31.31	27.583871904903
3	169205	31.41	27.720917230929
3	169762	31.51	27.860289886159
3	170319	31.61	28.001571761945
3	170876	31.71	28.144419863567
3	171433	31.81	28.288552815892
3	171990	31.91	28.433692757653
3	172555	32.01	28.576233407281
3	173112	32.11	28.709734164377
3	173669	32.21	28.828297001933
3	174226	32.31	28.926945139104
3	174783	32.41	29.001634073159
3	175340	32.51	29.049248939068
3	175897	32.61	29.067616197954
3	176454	32.71	29.057067201598
3	177011	32.81	29.021465595353
3	177568	32.91	28.965312123179
3	178133	33.01	28.89229896273
3	178690	33.11	28.805454985668
3	179247	33.21	28.707264921712
3	179804	33.31	28.599767114663
3	180361	33.41	28.484633716391
3	180918	33.51	28.363236473841
3	181475	33.61	28.236700697287
1	232	1.11	0
1	788	1.21	0
1	1344	1.31	0
1	1900	1.41	0
1	2456	1.51	0
1	3012	1.61	0
1	3568	1.71	0
1	4124	1.81	0
1	4680	1.91	0
1	5244	2.01	0
1	5800	2.11	0
1	6356	2.21	0
1	6912	2.31	0
1	7468	2.41	0
1	8024	2.51	0
1	8580	2.61	0
1	9136	2.71	0
1	9692	2.81	0
1	10248	2.91	0
1	10812	3.01	0
1	11368	3.11	0
1	11924	3.21	0
1	12480	3.31	0
1	13036	3.41	0
1	13592	3.51	0
1	14148	3.61	0
1	14704	3.71	0
1	15260	3.81	0
1	15816	3.91	0
1	16380	4.01	0
1	16936	4.11	0
1	17492	4.21	0
1	18048	4.31	0
1	18604	4.41	0
1	19160	4.51	0
1	19716	4.61	0
1	20272	4.71	0
1	20828	4.81	0
1	21384	4.91	0
1	21949	5.01	0
1	22506	5.11	0
1	23063	5.21	0
1	23620	5.31	0
1	24177	5.41	0
1	24734	5.51	0
1	25291	5.61	0
1	25848	5.71	0
1	26405	5.81	0
1	26962	5.91	0
1	27527	6.01	0
1	28084	6.11	0
1	28641	6.21	0
1	29198	6.31	0
1	29755	6.41	0
1	30312	6.51	0
1	30869	6.61	0
1	31426	6.71	0
1	31983	6.81	0
1	32540	6.91	0
1	33105	7.01	0
1	33662	7.11	0
1	34219	7.21	0
1	34776	7.31	0
1	35333	7.41	0
1	35890	7.51	0
1	36447	7.61	0
1	37004	7.71	0
1	37561	7.81	0
1	38118	7.91	0
1	38683	8.01	0
1	39240	8.11	0
1	39797	8.21	0
1	40354	8.31	0
1	40911	8.41	0
1	41468	8.51	0
1	42025	8.61	0
1	42582	8.71	0
1	43139	8.81	0
1	43696	8.91	0
1	44261	9.01	0
1	44818	9.11	0
1	45375	9.21	0
1	45932	9.31	0
1	46489	9.41	0
1	47046	9.51	0
1	47603	9.61	0
1	48160	9.71	0
1	48717	9.81	0
1	49274	9.91	0
1	49839	10.01	0
1	50396	10.11	0
1	50953	10.21	0
1	51510	10.31	0
1	52067	10.41	0
1	52624	10.51	0
1	53181	10.61	0
1	53738	10.71	0
1	54295	10.81	0
1	54852	10.91	0
1	55417	11.01	0
1	55974	11.11	0
1	56531	11.21	0
1	57088	11.31	0
1	57645	11.41	0
1	58202	11.51	0
1	58759	11.61	0
1	59316	11.71	0
1	59873	11.81	0
1	60430	11.91	0
1	60995	12.01	0
1	61552	12.11	0
1	62109	12.21	0
1	62666	12.31	0
1	63223	12.41	0
1	63780	12.51	0
1	64337	12.61	0
1	64894	12.71	0
1	65451	12.81	0
1	66008	12.91	0
1	66573	13.01	0
1	67130	13.11	0
1	67687	13.21	0
1	68244	13.31	0
1	68801	13.41	0
1	69358	13.51	0
1	69915	13.61	0
1	70472	13.71	0
1	71029	13.81	0
1	71586	13.91	0
1	72151	14.01	0
1	72708	14.11	0
1	73265	14.21	0
1	73822	14.31	0
1	74379	14.41	0
1	74936	14.51	0
1	75493	14.61	0
1	76050	14.71	0
1	76607	14.81	0
1	77164	14.91	0
1	77729	15.01	0
1	78286	15.11	0
1	78843	15.21	0
1	79400	15.31	0
1	79957	15.41	0
1	80514	15.51	0
1	81071	15.61	0
1	81628	15.71	0
1	82185	15.81	0
1	82742	15.91	0
1	83307	16.01	0
1	83864	16.11	0
1	84421	16.21	0
1	84978	16.31	0
1	85535	16.41	0
1	86092	16.51	0
1	86649	16.61	0
1	87206	16.71	0
1	87763	16.81	0
1	88320	16.91	0
1	88885	17.01	0
1	89442	17.11	0
1	89999	17.21	0
1	90556	17.31	0
1	91113	17.41	0
1	91670	17.51	0
1	92227	17.61	0
1	92784	17.71	0
1	93341	17.81	0
1	93898	17.91	0
1	94463	18.01	0
1	95020	18.11	0
1	95577	18.21	0
1	96134	18.31	0
1	96691	18.41	0
1	97248	18.51	0
1	97805	18.61	0
1	98362	18.71	0
1	98919	18.81	0
1	99476	18.91	0
1	100041	19.01	0
1	100598	19.11	0
1	101155	19.21	0
1	101712	19.31	0
1	102269	19.41	0
1	102826	19.51	0
1	103383	19.61	0
1	103940	19.71	0
1	104497	19.81	0
1	105054	19.91	0
1	105619	20.01	0
1	106176	20.11	0
1	106733	20.21	0
1	107290	20.31	0
1	107847	20.41	0
1	108404	20.51	0
1	108961	20.61	0
1	109518	20.71	0
1	110075	20.81	0
1	110632	20.91	0
1	111197	21.01	0
1	111754	21.11	0
1	112311	21.21	0
1	112868	21.31	0
1	113425	21.41	0
1	113982	21.51	0
1	114539	21.61	0
1	115096	21.71	0
1	115653	21.81	0
1	116210	21.91	0
1	116775	22.01	0
1	117332	22.11	0
1	117889	22.21	0
1	118446	22.31	0
1	119003	22.41	0
1	119560	22.51	0
1	120117	22.61	0
1	120674	22.71	0
1	121231	22.81	0
1	121788	22.91	0
1	122353	23.01	0
1	122910	23.11	0
1	123467	23.21	0
1	124024	23.31	0
1	124581	23.41	0
1	125138	23.51	0
1	125695	23.61	0
1	126252	23.71	0
1	126809	23.81	0
1	127366	23.91	0
1	127931	24.01	0
1	128488	24.11	0
1	129045	24.21	0
1	129602	24.31	0
1	130159	24.41	0
1	130716	24.51	0
1	131273	24.61	0
1	131830	24.71	0
1	132387	24.81	0
1	132944	24.91	0
1	133509	25.01	0
1	134066	25.11	0
1	134623	25.21	0
1	135180	25.31	0
1	135737	25.41	0
1	136294	25.51	0
1	136851	25.61	0
1	137408	25.71	0
1	137965	25.81	0
1	138522	25.91	0
1	139087	26.01	0
1	139644	26.11	0
1	140201	26.21	0
1	140758	26.31	0
1	141315	26.41	0
1	141872	26.51	0
1	142429	26.61	0
1	142986	26.71	0
1	143543	26.81	0
1	144100	26.91	0
1	144665	27.01	0
1	145222	27.11	0
1	145779	27.21	0
1	146336	27.31	0
1	146893	27.41	0
1	147450	27.51	0
1	148007	27.61	0
1	148564	27.71	0
1	149121	27.81	0
1	149678	27.91	0
1	150243	28.01	0
1	150800	28.11	0
1	151357	28.21	0
1	151914	28.31	0
1	152471	28.41	0
1	153028	28.51	0
1	153585	28.61	0
1	154142	28.71	0
1	154699	28.81	0
1	155256	28.91	0
1	155821	29.01	0
1	156378	29.11	0
1	156935	29.21	0
1	157492	29.31	0
1	158049	29.41	0
1	158606	29.51	0
1	159163	29.61	0
1	159720	29.71	0
1	160277	29.81	0
1	160834	29.91	0
1	161399	30.01	0
1	161956	30.11	0
1	162513	30.21	0
1	163070	30.31	0
1	163627	30.41	0
1	164184	30.51	0
1	164741	30.61	0
1	165298	30.71	0
1	165855	30.81	0
1	166412	30.91	0
1	166977	31.01	0
1	167534	31.11	0
1	168091	31.21	0
1	168648	31.31	0
1	169205	31.41	0
1	169762	31.51	0
1	170319	31.61	0
1	170876	31.71	0
1	171433	31.81	0
1	171990	31.91	0
1	172555	32.01	0
1	173112	32.11	0
1	173669	32.21	0
1	174226	32.31	0
1	174783	32.41	0
1	175340	32.51	0
1	175897	32.61	0
1	176454	32.71	0
1	177011	32.81	0
1	177568	32.91	0
1	178133	33.01	0
1	178690	33.11	0
1	179247	33.21	0
1	179804	33.31	0
1	180361	33.41	0
1	180918	33.51	0
1	181475	33.61	0
0	232	1.11	-1
0	788	1.21	-1
0	1344	1.31	-1
0	1900	1.41	-1
0	2456	1.51	-1
0	3012	1.61	-1
0	3568	1.71	-1
0	4124	1.81	-1
0	4680	1.91	-1
0	5244	2.01	-1
0	5800	2.11	-1
0	6356	2.21	-1
0	6912	2.31	-1
0	7468	2.41	-1
0	8024	2.51	-1
0	8580	2.61	-1
0	9136	2.71	-1
0	9692	2.81	-1
0	10248	2.91	-1
0	10812	3.01	-1
0	11368	3.11	-1
0	11924	3.21	-1
0	12480	3.31	-1
0	13036	3.41	-1
0	13592	3.51	-1
0	14148	3.61	-1
0	14704	3.71	-1
0	15260	3.81	-1
0	15816	3.91	-1
0	16380	4.01	-1
0	16936	4.11	-1
0	17492	4.21	-1
0	18048	4.31	-1
0	18604	4.41	-1
0	19160	4.51	-1
0	19716	4.61	-1
0	20272	4.71	-1
0	20828	4.81	-1
0	21384	4.91	-1
0	21949	5.01	-1
0	22506	5.11	-1
0	23063	5.21	-1
0	23620	5.31	-1
0	24177	5.41	-1
0	24734	5.51	-1
0	25291	5.61	-1
0	25848	5.71	-1
0	26405	5.81	-1
0	26962	5.91	-1
0	27527	6.01	-1
0	28084	6.11	-1
0	28641	6.21	-1
0	29198	6.31	-1
0	29755	6.41	-1
0	30312	6.51	-1
0	30869	6.61	-1
0	31426	6.71	-1
0	31983	6.81	-1
0	32540	6.91	-1
0	33105	7.01	-1
0	33662	7.11	-1
0	34219	7.21	-1
0	34776	7.31	-1
0	35333	7.41	-1
0	35890	7.51	-1
0	36447	7.61	-1
0	37004	7.71	-1
0	37561	7.81	-1
0	38118	7.91	-1
0	38683	8.01	-1
0	39240	8.11	-1
0	39797	8.21	-1
0	40354	8.31	-1
0	40911	8.41	-1
0	41468	8.51	-1
0	42025	8.61	-1
0	42582	8.71	-1
0	43139	8.81	-1
0	43696	8.91	-1
0	44261	9.01	-1
0	44818	9.11	-1
0	45375	9.21	-1
0	45932	9.31	-1
0	46489	9.41	-1
0	47046	9.51	-1
0	47603	9.61	-1
0	48160	9.71	-1
0	48717	9.81	-1
0	49274	9.91	-1
0	49839	10.01	-1
0	50396	10.11	-1
0	50953	10.21	-1
0	51510	10.31	-1
0	52067	10.41	-1
0	52624	10.51	-1
0	53181	10.61	-1
0	53738	10.71	-1
0	54295	10.81	-1
0	54852	10.91	-1
0	55417	11.01	-1
0	55974	11.11	-1
0	56531	11.21	-1
0	57088	11.31	-1
0	57645	11.41	-1
0	58202	11.51	-1
0	58759	11.61	-1
0	59316	11.71	-1
0	59873	11.81	-1
0	60430	11.91	-1
0	60995	12.01	-1
0	61552	12.11	-1
0	62109	12.21	-1
0	62666	12.31	-1
0	63223	12.41	-1
0	63780	12.51	-1
0	64337	12.61	-1
0	64894	12.71	-1
0	65451	12.81	-1
0	66008	12.91	-1
0	66573	13.01	-1
0	67130	13.11	-1
0	67687	13.21	-1
0	68244	13.31	-1
0	68801	13.41	-1
0	69358	13.51	-1
0	69915	13.61	-1
0	70472	13.71	-1
0	71029	13.81	-1
0	71586	13.91	-1
0	72151	14.01	-1
0	72708	14.11	-1
0	73265	14.21	-1
0	73822	14.31	-1
0	74379	14.41	-1
0	74936	14.51	-1
0	75493	14.61	-1
0	76050	14.71	-1
0	76607	14.81	-1
0	77164	14.91	-1
0	77729	15.01	-1
0	78286	15.11	-1
0	78843	15.21	-1
0	79400	15.31	-1
0	79957	15.41	-1
0	80514	15.51	-1
0	81071	15.61	-1
0	81628	15.71	-1
0	82185	15.81	-1
0	82742	15.91	-1
0	83307	16.01	-1
0	83864	16.11	-1
0	84421	16.21	-1
0	84978	16.31	-1
0	85535	16.41	-1
0	86092	16.51	-1
0	86649	16.61	-1
0	87206	16.71	-1
0	87763	16.81	-1
0	88320	16.91	-1
0	88885	17.01	-1
0	89442	17.11	-1
0	89999	17.21	-1
0	90556	17.31	-1
0	91113	17.41	-1
0	91670	17.51	-1
0	92227	17.61	-1
0	92784	17.71	-1
0	93341	17.81	-1
0	93898	17.91	-1
0	94463	18.01	-1
0	95020	18.11	-1
0	95577	18.21	-1
0	96134	18.31	-1
0	96691	18.41	-1
0	97248	18.51	-1
0	97805	18.61	-1
0	98362	18.71	-1
0	98919	18.81	-1
0	99476	18.91	-1
0	100041	19.01	-1
0	100598	19.11	-1
0	101155	19.21	-1
0	101712	19.31	-1
0	102269	19.41	-1
0	102826	19.51	-1
0	103383	19.61	-1
0	103940	19.71	-1
0	104497	19.81	-1
0	105054	19.91	-1
0	105619	20.01	-1
0	106176	20.11	-1
0	106733	20.21	-1
0	107290	20.31	-1
0	107847	20.41	-1
0	108404	20.51	-1
0	108961	20.61	-1
0	109518	20.71	-1
0	110075	20.81	-1
0	110632	20.91	-1
0	111197	21.01	-1
0	111754	21.11	-1
0	112311	21.21	-1
0	112868	21.31	-1
0	113425	21.41	-1
0	113982	21.51	-1
0	114539	21.61	-1
0	115096	21.71	-1
0	115653	21.81	-1
0	116210	21.91	-1
0	116775	22.01	-1
0	117332	22.11	-1
0	117889	22.21	-1
0	118446	22.31	-1
0	119003	22.41	-1
0	119560	22.51	-1
0	120117	22.61	-1
0	120674	22.71	-1
0	121231	22.81	-1
0	121788	22.91	-1
0	122353	23.01	-1
0	122910	23.11	-1
0	123467	23.21	-1
0	124024	23.31	-1
0	124581	23.41	-1
0	125138	23.51	-1
0	125695	23.61	-1
0	126252	23.71	-1
0	126809	23.81	-1
0	127366	23.91	-1
0	127931	24.01	-1
0	128488	24.11	-1
0	129045	24.21	-1
0	129602	24.31	-1
0	130159	24.41	-1
0	130716	24.51	-1
0	131273	24.61	-1
0	131830	24.71	-1
0	132387	24.81	-1
0	132944	24.91	-1
0	133509	25.01	-1
0	134066	25.11	-1
0	134623	25.21	-1
0	135180	25.31	-1
0	135737	25.41	-1
0	136294	25.51	-1
0	136851	25.61	-1
0	137408	25.71	-1
0	137965	25.81	-1
0	138522	25.91	-1
0	139087	26.01	-1
0	139644	26.11	-1
0	140201	26.21	-1
0	140758	26.31	-1
0	141315	26.41	-1
0	141872	26.51	-1
0	142429	26.61	-1
0	142986	26.71	-1
0	143543	26.81	-1
0	144100	26.91	-1
0	144665	27.01	-1
0	145222	27.11	-1
0	145779	27.21	-1
0	146336	27.31	-1
0	146893	27.41	-1
0	147450	27.51	-1
0	148007	27.61	-1
0	148564	27.71	-1
0	149121	27.81	-1
0	149678	27.91	-1
0	150243	28.01	-1
0	150800	28.11	-1
0	151357	28.21	-1
0	151914	28.31	-1
0	152471	28.41	-1
0	153028	28.51	-1
0	153585	28.61	-1
0	154142	28.71	-1
0	154699	28.81	-1
0	155256	28.91	-1
0	155821	29.01	-1
0	156378	29.11	-1
0	156935	29.21	-1
0	157492	29.31	-1
0	158049	29.41	-1
0	158606	29.51	-1
0	159163	29.61	-1
0	159720	29.71	-1
0	160277	29.81	-1
0	160834	29.91	-1
0	161399	30.01	-1
0	161956	30.11	-1
0	162513	30.21	-1
0	163070	30.31	-1
0	163627	30.41	-1
0	164184	30.51	-1
0	164741	30.61	-1
0	165298	30.71	-1
0	165855	30.81	-1
0	166412	30.91	-1
0	166977	31.01	-1
0	167534	31.11	-1
0	168091	31.21	-1
0	168648	31.31	-1
0	169205	31.41	-1
0	169762	31.51	-1
0	170319	31.61	-1
0	170876	31.71	-1
0	171433	31.81	-1
0	171990	31.91	-1
0	172555	32.01	-1
0	173112	32.11	-1
0	173669	32.21	-1
0	174226	32.31	-1
0	174783	32.41	-1
0	175340	32.51	-1
0	175897	32.61	-1
0	176454	32.71	-1
0	177011	32.81	-1
0	177568	32.91	-1
0	178133	33.01	-1
0	178690	33.11	-1
0	179247	33.21	-1
0	179804	33.31	-1
0	180361	33.41	-1
0	180918	33.51	-1
0	181475	33.61	-1
2	232	1.11	0
2	788	1.21	0
2	1344	1.31	0
2	1900	1.41	0
2	2456	1.51	0
2	3012	1.61	0
2	3568	1.71	0
2	4124	1.81	0
2	4680	1.91	0
2	5244	2.01	0
2	5800	2.11	0
2	6356	2.21	0
2	6912	2.31	0
2	7468	2.41	0
2	8024	2.51	0
2	8580	2.61	0
2	9136	2.71	0
2	9692	2.81	0
2	10248	2.91	0
2	10812	3.01	0
2	11368	3.11	0
2	11924	3.21	0
2	12480	3.31	0
2	13036	3.41	0
2	13592	3.51	0
2	14148	3.61	0
2	14704	3.71	0
2	15260	3.81	0
2	15816	3.91	0
2	16380	4.01	0
2	16936	4.11	0
2	17492	4.21	0
2	18048	4.31	0
2	18604	4.41	0
2	19160	4.51	0
2	19716	4.61	0
2	20272	4.71	0
2	20828	4.81	0
2	21384	4.91	0
2	21949	5.01	0
2	22506	5.11	0
2	23063	5.21	0
2	23620	5.31	0
2	24177	5.41	0
2	24734	5.51	0
2	25291	5.61	0
2	25848	5.71	0
2	26405	5.81	0
2	26962	5.91	0
2	27527	6.01	0
2	28084	6.11	0
2	28641	6.21	0
2	29198	6.31	0
2	29755	6.41	0
2	30312	6.51	0
2	30869	6.61	0
2	31426	6.71	0
2	31983	6.81	0
2	32540	6.91	0
2	33105	7.01	0
2	33662	7.11	0
2	34219	7.21	0
2	34776	7.31	0
2	35333	7.41	0
2	35890	7.51	0
2	36447	7.61	0
2	37004	7.71	0
2	37561	7.81	0
2	38118	7.91	0
2	38683	8.01	0
2	39240	8.11	0
2	39797	8.21	0
2	40354	8.31	0
2	40911	8.41	0
2	41468	8.51	0
2	42025	8.61	0
2	42582	8.71	0
2	43139	8.81	0
2	43696	8.91	0
2	44261	9.01	0
2	44818	9.11	0
2	45375	9.21	0
2	45932	9.31	0
2	46489	9.41	0
2	47046	9.51	0
2	47603	9.61	0
2	48160	9.71	0
2	48717	9.81	0
2	49274	9.91	0
2	49839	10.01	0
2	50396	10.11	0
2	50953	10.21	0
2	51510	10.31	0
2	52067	10.41	0
2	52624	10.51	0
2	53181	10.61	0
2	53738	10.71	0
2	54295	10.81	0
2	54852	10.91	0
2	55417	11.01	0
2	55974	11.11	0
2	56531	11.21	0
2	57088	11.31	0
2	57645	11.41	0
2	58202	11.51	0
2	58759	11.61	0
2	59316	11.71	0
2	59873	11.81	0
2	60430	11.91	0
2	60995	12.01	0
2	61552	12.11	0
2	62109	12.21	0
2	62666	12.31	0
2	63223	12.41	0
2	63780	12.51	0
2	64337	12.61	0
2	64894	12.71	0
2	65451	12.81	0
2	66008	12.91	0
2	66573	13.01	0
2	67130	13.11	0
2	67687	13.21	0
2	68244	13.31	0
2	68801	13.41	0
2	69358	13.51	0
2	69915	13.61	0
2	70472	13.71	0
2	71029	13.81	0
2	71586	13.91	0
2	72151	14.01	0
2	72708	14.11	0
2	73265	14.21	0
2	73822	14.31	0
2	74379	14.41	0
2	74936	14.51	0
2	75493	14.61	0
2	76050	14.71	0
2	76607	14.81	0
2	77164	14.91	0
2	77729	15.01	0
2	78286	15.11	0
2	78843	15.21	0
2	79400	15.31	0
2	79957	15.41	0
2	80514	15.51	0
2	81071	15.61	0
2	81628	15.71	0
2	82185	15.81	0
2	82742	15.91	0
2	83307	16.01	0
2	83864	16.11	0
2	84421	16.21	0
2	84978	16.31	0
2	85535	16.41	0
2	86092	16.51	0
2	86649	16.61	0
2	87206	16.71	0
2	87763	16.81	0
2	88320	16.91	0
2	88885	17.01	0
2	89442	17.11	0
2	89999	17.21	0
2	90556	17.31	0
2	91113	17.41	0
2	91670	17.51	0
2	92227	17.61	0
2	92784	17.71	0
2	93341	17.81	0
2	93898	17.91	0
2	94463	18.01	0
2	95020	18.11	0
2	95577	18.21	0
2	96134	18.31	0
2	96691	18.41	0
2	97248	18.51	0
2	97805	18.61	0
2	98362	18.71	0
2	98919	18.81	0
2	99476	18.91	0
2	100041	19.01	0
2	100598	19.11	0
2	101155	19.21	0
2	101712	19.31	0
2	102269	19.41	0
2	102826	19.51	0
2	103383	19.61	0
2	103940	19.71	0
2	104497	19.81	0
2	105054	19.91	0
2	105619	20.01	0
2	106176	20.11	0
2	106733	20.21	0
2	107290	20.31	0
2	107847	20.41	0
2	108404	20.51	0
2	108961	20.61	0
2	109518	20.71	0
2	110075	20.81	0
2	110632	20.91	0
2	111197	21.01	0
2	111754	21.11	0
2	112311	21.21	0
2	112868	21.31	0
2	113425	21.41	0
2	113982	21.51	0
2	114539	21.61	0
2	115096	21.71	0
2	115653	21.81	0
2	116210	21.91	0
2	116775	22.01	0
2	117332	22.11	0
2	117889	22.21	0
2	118446	22.31	0
2	119003	22.41	0
2	119560	22.51	0
2	120117	22.61	0
2	120674	22.71	0
2	121231	22.81	0
2	121788	22.91	0
2	122353	23.01	0
2	122910	23.11	0
2	123467	23.21	0
2	124024	23.31	0
2	124581	23.41	0
2	125138	23.51	0
2	125695	23.61	0
2	126252	23.71	0
2	126809	23.81	0
2	127366	23.91	0
2	127931	24.01	0
2	128488	24.11	0
2	129045	24.21	0
2	129602	24.31	0
2	130159	24.41	0
2	130716	24.51	0
2	131273	24.61	0
2	131830	24.71	0
2	132387	24.81	0
2	132944	24.91	0
2	133509	25.01	0
2	134066	25.11	0
2	134623	25.21	0
2	135180	25.31	0
2	135737	25.41	0
2	136294	25.51	0
2	136851	25.61	0
2	137408	25.71	0
2	137965	25.81	0
2	138522	25.91	0
2	139087	26.01	0
2	139644	26.11	0
2	140201	26.21	0
2	140758	26.31	0
2	141315	26.41	0
2	141872	26.51	0
2	142429	26.61	0
2	142986	26.71	0
2	143543	26.81	0
2	144100	26.91	0
2	144665	27.01	0
2	145222	27.11	0
2	145779	27.21	0
2	146336	27.31	0
2	146893	27.41	0
2	147450	27.51	0
2	148007	27.61	0
2	148564	27.71	0
2	149121	27.81	0
2	149678	27.91	0
2	150243	28.01	0
2	150800	28.11	0
2	151357	28.21	0
2	151914	28.31	0
2	152471	28.41	0
2	153028	28.51	0
2	153585	28.61	0
2	154142	28.71	0
2	154699	28.81	0
2	155256	28.91	0
2	155821	29.01	0
2	156378	29.11	0
2	156935	29.21	0
2	157492	29.31	0
2	158049	29.41	0
2	158606	29.51	0
2	159163	29.61	0
2	159720	29.71	0
2	160277	29.81	0
2	160834	29.91	0
2	161399	30.01	0
2	161956	30.11	0
2	162513	30.21	0
2	163070	30.31	0
2	163627	30.41	0
2	164184	30.51	0
2	164741	30.61	0
2	165298	30.71	0
2	165855	30.81	0
2	166412	30.91	0
2	166977	31.01	0
2	167534	31.11	0
2	168091	31.21	0
2	168648	31.31	0
2	169205	31.41	0
2	169762	31.51	0
2	170319	31.61	0
2	170876	31.71	0
2	171433	31.81	0
2	171990	31.91	0
2	172555	32.01	0
2	173112	32.11	0
2	173669	32.21	0
2	174226	32.31	0
2	174783	32.41	0
2	175340	32.51	0
2	175897	32.61	0
2	176454	32.71	0
2	177011	32.81	0
2	177568	32.91	0
2	178133	33.01	0
2	178690	33.11	0
2	179247	33.21	0
2	179804	33.31	0
2	180361	33.41	0
2	180918	33.51	0
2	181475	33.61	0
10	5234	2	0
10	10802	3	0
10	16370	4	0
10	21939	5	0
10	27516	6	0
10	33094	7	0
10	38672	8	0
10	44250	9	0
10	49828	10	0
10	55406	11	0
10	60984	12	0
10	66562	13	0
10	72140	14	0
10	77718	15	0
10	83296	16	0
10	88874	17	0
10	94452	18	0
10	100030	19	0
10	105608	20	0
10	111186	21	0
10	116764	22	0
10	122342	23	0
10	127920	24	0
10	133498	25	0
10	139076	26	0
10	144654	27	0
10	150232	28	0
10	155810	29	0
10	161388	30	0
10	166966	31	0
10	172544	32	0
10	178122	33	0
9	5234	2	0.023625
9	10802	3	0.02625
9	16370	4	0.02625
9	21939	5	0.02625
9	27516	6	0.02625
9	33094	7	0.02625
9	38672	8	0.02625
9	44250	9	0.02625
9	49828	10	0.02625
9	55406	11	0.02625
9	60984	12	0.02625
9	66562	13	0.02625
9	72140	14	0.02625
9	77718	15	0.02625
9	83296	16	0.02625
9	88874	17	0.02625
9	94452	18	0.02625
9	100030	19	0.02625
9	105608	20	0.02625
9	111186	21	0.02625
9	116764	22	0.02625
9	122342	23	0.02625
9	127920	24	0.02625
9	133498	25	0.02625
9	139076	26	0.02625
9	144654	27	0.02625
9	150232	28	0.02625
9	155810	29	0.02625
9	161388	30	0.02625
9	166966	31	0.02625
9	172544	32	0.02625
9	178122	33	0.02625
8	5234	2	0
8	10802	3	0
8	16370	4	0
8	21939	5	0
8	27516	6	0
8	33094	7	0
8	38672	8	0
8	44250	9	0
8	49828	10	0
8	55406	11	0
8	60984	12	0
8	66562	13	0
8	72140	14	0
8	77718	15	0
8	83296	16	0
8	88874	17	0
8	94452	18	0
8	100030	19	0
8	105608	20	0
8	111186	21	0
8	116764	22	0
8	122342	23	0
8	127920	24	0
8	133498	25	0
8	139076	26	0
8	144654	27	0
8	150232	28	0
8	155810	29	0
8	161388	30	0
8	166966	31	0
8	172544	32	0
8	178122	33	0
29	233	1.11	0
29	789	1.21	-1.8394982766788e-07
29	1345	1.31	-4.429187972072e-07
29	1901	1.41	-6.4794874173191e-07
29	2457	1.51	-8.0557053823022e-07
29	3013	1.61	-9.2183121985444e-07
29	3569	1.71	-1.0022968100031e-06
29	4125	1.81	-1.0520604985039e-06
29	4681	1.91	-1.0757553128841e-06
29	5245	2.01	-1.0775704578858e-06
29	5801	2.11	-1.0612705450139e-06
29	6357	2.21	-1.0302174416357e-06
29	6913	2.31	-9.8739341369471e-07
29	7469	2.41	-9.3542561949176e-07
29	8025	2.51	-8.7661132494648e-07
29	8581	2.61	-8.1294325923218e-07
29	9137	2.71	-7.4613482050414e-07
29	9693	2.81	-6.7764488384193e-07
29	10249	2.91	-6.0870181684106e-07
29	10813	3.01	-5.4032669281446e-07
29	11369	3.11	-4.7335528469841e-07
29	11925	3.21	-4.0845891162422e-07
29	12481	3.31	-3.4616406968701e-07
29	13037	3.41	-2.8687052120203e-07
29	13593	3.51	-2.3086815777635e-07
29	14149	3.61	-1.7835244848377e-07
29	14705	3.71	-1.2943847153237e-07
29	15261	3.81	-8.417363317323e-08
29	15817	3.91	-4.2549037704283e-08
29	16381	4.01	-4.5097862561004e-09
29	16937	4.11	3.0036061553326e-08
29	17493	4.21	6.1209489624378e-08
29	18049	4.31	8.9153651667155e-08
29	18605	4.41	1.1402784165865e-07
29	19161	4.51	1.3600237049396e-07
29	19717	4.61	1.5525419190834e-07
29	20273	4.71	1.7196325826978e-07
29	20829	4.81	1.8630958570867e-07
29	21385	4.91	1.9847069814069e-07
29	21950	5.01	2.0861974981458e-07
29	22507	5.11	2.1692393388828e-07
29	23064	5.21	0.03982847993518
29	23621	5.31	0.13515326903505
29	24178	5.41	0.27283028408102
29	24735	5.51	0.44029921901549
29	25292	5.61	0.62262906259972
29	25849	5.71	0.78759402290671
29	26406	5.81	0.92312806775439
29	26963	5.91	1.0344218981807
29	27528	6.01	1.1257471985765
29	28085	6.11	1.2006203102519
29	28642	6.21	1.2619366356994
29	29199	6.31	1.3120810195647
29	29756	6.41	1.3530184110007
29	30313	6.51	1.3863683397617
29	30870	6.61	1.4062874175618
29	31427	6.71	1.3875775746014
29	31984	6.81	1.3189223938263
29	32541	6.91	1.2034009276261
29	33106	7.01	1.0449452964331
29	33663	7.11	0.84822054405687
29	34220	7.21	0.6185023160328
29	34777	7.31	0.36155348653577
29	35334	7.41	0.083500865763423
29	35891	7.51	-0.19629861874144
29	36448	7.61	-0.44226949250102
29	37005	7.71	-0.64451686829341
29	37562	7.81	-0.81072542958723
29	38119	7.91	-0.94722214433202
29	38684	8.01	-1.059217809528
29	39241	8.11	-1.1510054233986
29	39798	8.21	-1.2261231211
29	40355	8.31	-1.2874880219662
29	40912	8.41	-1.3375061975236
29	41469	8.51	-1.378163035167
29	42026	8.61	-1.411097505769
29	42583	8.71	-1.4376632144621
29	43140	8.81	-1.4589785976989
29	43697	8.91	-1.4759682061803
29	44262	9.01	-1.4893966657144
29	44819	9.11	-1.4998966228921
29	45376	9.21	-1.5079917484464
29	45933	9.31	-1.5141156791082
29	46490	9.41	-1.5186276211668
29	47047	9.51	-1.521824778392
29	47604	9.61	-1.4804049442401
29	48161	9.71	-1.3696637895757
29	48718	9.81	-1.1971498238555
29	49275	9.91	-0.97355976780111
29	49840	10.01	-0.70956526711486
29	50397	10.11	-0.41566223028173
29	50954	10.21	-0.10203471420043
29	51511	10.31	0.19197953006066
29	52068	10.41	0.43971771741375
29	52625	10.51	0.64345516634974
29	53182	10.61	0.81091600673995
29	53739	10.71	0.94846069590354
29	54296	10.81	1.0613285357832
29	54853	10.91	1.1538368508045
29	55418	11.01	1.2295445917017
29	55975	11.11	1.29138673744
29	56532	11.21	1.341784724316
29	57089	11.31	1.3827371934581
29	57646	11.41	1.4158945784336
29	58203	11.51	1.4426204232648
29	58760	11.61	1.4640418030673
29	59317	11.71	1.4810907944019
29	59874	11.81	1.4945385935885
29	60431	11.91	1.501291100232
29	60996	12.01	1.4601911102959
29	61553	12.11	1.3528062663221
29	62110	12.21	1.1877358570483
29	62667	12.31	0.9739248605572
29	63224	12.41	0.72050776245324
29	63781	12.51	0.43666274173143
29	64338	12.61	0.13147613343918
29	64895	12.71	-0.16186358658666
29	65452	12.81	-0.41283948338196
29	66009	12.91	-0.61935438396994
29	66574	13.01	-0.78921298647816
29	67131	13.11	-0.92884142891463
29	67688	13.21	-1.0435325458402
29	68245	13.31	-1.1376472871471
29	68802	13.41	-1.2147801543385
29	69359	13.51	-1.2778951003188
29	69916	13.61	-1.3294371823417
29	70473	13.71	-1.3714243089887
29	71030	13.81	-1.4055226435768
29	71587	13.91	-1.4331085876537
29	72152	14.01	-1.4553197441254
29	72709	14.11	-1.4730968295045
29	73266	14.21	-1.4872181518753
29	73823	14.31	-1.4983279815911
29	74380	14.41	-1.5069599040841
29	74937	14.51	-1.4840970386212
29	75494	14.61	-1.3999974404804
29	76051	14.71	-1.2531772353595
29	76608	14.81	-1.0531476430608
29	77165	14.91	-0.80958973411801
29	77730	15.01	-0.53220211651801
29	78287	15.11	-0.23056055879888
29	78844	15.21	0.073310674781707
29	79401	15.31	0.34063816488386
29	79958	15.41	0.56057072943595
29	80515	15.51	0.74143482520537
29	81072	15.61	0.89008544686542
29	81629	15.71	1.0121679803297
29	82186	15.81	1.1123332456785
29	82743	15.91	1.1944141182481
29	83308	16.01	1.2615706113607
29	83865	16.11	1.3164090692873
29	84422	16.21	1.3610801058395
29	84979	16.31	1.3973590926615
29	85536	16.41	1.4267123191821
29	86093	16.51	1.4503513865018
29	86650	16.61	1.4692779382388
29	87207	16.71	1.4843204545128
29	87764	16.81	1.4961645260188
29	88321	16.91	1.505377767144
29	88886	17.01	1.4766109763048
29	89443	17.11	1.3839308655481
29	90000	17.21	1.230340334331
29	90557	17.31	1.0251521330894
29	91114	17.41	0.77785482009767
29	91671	17.51	0.49796292205148
29	92228	17.61	0.19487842613799
29	92785	17.71	-0.10534932814192
29	93342	17.81	-0.36690994297158
29	93899	17.91	-0.58210369645864
29	94464	18.01	-0.75907454690586
29	95021	18.11	-0.90452745710044
29	95578	18.21	-1.0239844511656
29	96135	18.31	-1.1219948987295
29	96692	18.41	-1.202308228896
29	97249	18.51	-1.268015804807
29	97806	18.61	-1.3216674821046
29	98363	18.71	-1.3653673838824
29	98920	18.81	-1.4008526118396
29	99477	18.91	-1.4295579463715
29	100042	19.01	-1.4526690410644
29	100599	19.11	-1.4711661679946
29	101156	19.21	-1.4858602017545
29	101713	19.31	-1.4974222277508
29	102270	19.41	-1.5064079121898
29	102827	19.51	-1.4798106350977
29	103384	19.61	-1.3902893734379
29	103941	19.71	-1.2391880273754
29	104498	19.81	-1.0358927741951
29	105055	19.91	-0.78996340483366
29	105620	20.01	-0.51098256716679
29	106177	20.11	-0.20841656478797
29	106734	20.21	0.093175241062745
29	107291	20.31	0.35688577457138
29	107848	20.41	0.57384876076744
29	108405	20.51	0.75227562974799
29	108962	20.61	0.89892681415944
29	109519	20.71	1.0193699490598
29	110076	20.81	1.1181919154193
29	110633	20.91	1.1991729985481
29	111198	21.01	1.2654299486924
29	111755	21.11	1.3195335134321
29	112312	21.21	1.3636050124789
29	112869	21.31	1.3993957057778
29	113426	21.41	1.4283520332442
29	113983	21.51	1.451669252604
29	114540	21.61	1.4703355489787
29	115097	21.71	1.4851683182804
29	115654	21.81	1.4968440215753
29	116211	21.91	1.5059227573596
29	116776	22.01	1.4785299674962
29	117333	22.11	1.3878461639318
29	117890	22.21	1.2358299235027
29	118447	22.31	1.0318402545559
29	119004	22.41	0.78541058641049
29	119561	22.51	0.50609835342252
29	120118	22.61	0.20334605144079
29	120675	22.71	-0.097734428302501
29	121232	22.81	-0.36064258915879
29	121789	22.91	-0.57694468228491
29	122354	23.01	-0.75482711490394
29	122911	23.11	-0.9010297445134
29	123468	23.21	-1.0211032847549
29	124025	23.31	-1.1196206970685
29	124582	23.41	-1.2003508139295
[...]
101	91864	17.541815407098	0.099999452133
101	92421	17.641814861044	0.099999453946
101	92978	17.741827316905	0.100012455861
101	93535	17.841826774754	0.099999457849
101	94092	17.941826234626	0.099999459872
101	94657	18.04182569652	0.099999461894
101	95214	18.141825160407	0.099999463887
101	95771	18.241824626224	0.099999465817
101	96328	18.341824093882	0.099999467658
101	96885	18.441823563268	0.099999469386
101	97442	18.54182303424	0.099999470972
101	97999	18.641822506639	0.099999472399
101	98556	18.741821980284	0.099999473645
101	99113	18.841821454979	0.099999474695
101	99670	18.941820930514	0.099999475535
101	100235	19.041820406659	0.099999476145
101	100792	19.14181988318	0.099999476521
101	101349	19.241819359834	0.099999476654
101	101906	19.341818836366	0.099999476532
101	102463	19.44181831252	0.099999476154
101	103020	19.541817788038	0.099999475518
101	103577	19.641817262669	0.099999474631
101	104134	19.741816736168	0.099999473499
101	104691	19.841816208313	0.099999472145
101	105248	19.941815678901	0.099999470588
101	105813	20.041815147756	0.099999468855
101	106370	20.14182761474	0.100012466984
101	106927	20.241827079746	0.099999465006
101	107484	20.341826542707	0.099999462961
101	108041	20.441826003587	0.09999946088
101	108598	20.541825462387	0.0999994588
101	109155	20.641824919139	0.099999456752
101	109712	20.741824373907	0.099999454768
101	110269	20.84182382678	0.099999452873
101	110826	20.941823277874	0.099999451094
101	111391	21.04182272733	0.099999449456
101	111948	21.141822175311	0.099999447981
101	112505	21.241821621997	0.099999446686
101	113062	21.341821067588	0.099999445591
101	113619	21.441820512295	0.099999444707
101	114176	21.541819956347	0.099999444052
101	114733	21.641819399979	0.099999443632
101	115290	21.741818843441	0.099999443462
101	115847	21.841818286986	0.099999443545
101	116404	21.94181773087	0.099999443884
101	116969	22.041817175353	0.099999444483
101	117526	22.141816620686	0.099999445333
101	118083	22.241816067116	0.09999944643
101	118640	22.341815514871	0.099999447755
101	119197	22.441814964149	0.099999449278
101	119754	22.541827415128	0.100012450979
101	120311	22.641826867949	0.099999452821
101	120868	22.741826322718	0.099999454769
101	121425	22.841825779505	0.099999456787
101	121982	22.941825238346	0.099999458841
101	122547	23.04182469924	0.099999460894
101	123104	23.141824162154	0.099999462914
101	123661	23.241823627028	0.099999464874
101	124218	23.341823093771	0.099999466743
101	124775	23.441822562272	0.099999468501
101	125332	23.541822032387	0.099999470115
101	125889	23.641821503958	0.099999471571
101	126446	23.741820976801	0.099999472843
101	127003	23.84182045072	0.099999473919
101	127560	23.941819925502	0.099999474782
101	128125	24.041819400921	0.099999475419
101	128682	24.141818876742	0.099999475821
101	129239	24.241818352719	0.099999475977
101	129796	24.341817828597	0.099999475878
101	130353	24.441817304121	0.099999475524
101	130910	24.54181677903	0.099999474909
101	131467	24.641816253074	0.099999474044
101	132024	24.741815726008	0.099999472934
101	132581	24.841815197606	0.099999471598
101	133138	24.941827667667	0.100012470061
101	133703	25.041827136015	0.099999468348
101	134260	25.14182660251	0.099999466495
101	134817	25.241826067045	0.099999464535
101	135374	25.341825529554	0.099999462509
101	135931	25.441824989999	0.099999460445
101	136488	25.541824448381	0.099999458382
101	137045	25.641823904733	0.099999456352
101	137602	25.741823359115	0.099999454382
101	138159	25.841822811617	0.099999452502
101	138716	25.941822262358	0.099999450741
101	139281	26.041821711475	0.099999449117
101	139838	26.14182115913	0.099999447655
101	140395	26.241820605503	0.099999446373
101	140952	26.341820050795	0.099999445292
101	141509	26.441819495217	0.099999444422
101	142066	26.541818938993	0.099999443776
101	142623	26.641818382365	0.099999443372
101	143180	26.741817825576	0.099999443211
101	143737	26.841817268879	0.099999443303
101	144294	26.941816712532	0.099999443653
101	144859	27.041816156793	0.099999444261
101	145416	27.141815601916	0.099999445123
101	145973	27.241815048144	0.099999446228
101	146530	27.341827495703	0.100012447559
101	147087	27.441826944796	0.099999449093
101	147644	27.541826395597	0.099999450801
101	148201	27.641825848249	0.099999452652
101	148758	27.741825302855	0.099999454606
101	149315	27.841824759487	0.099999456632
101	149872	27.941824218178	0.099999458691
101	150437	28.041823678926	0.099999460748
101	150994	28.141823141703	0.099999462777
101	151551	28.241822606448	0.099999464745
101	152108	28.341822073069	0.099999466621
101	152665	28.441821541449	0.09999946838
101	153222	28.541821011451	0.099999470002
101	153779	28.64182048291	0.099999471459
101	154336	28.741819955649	0.099999472739
101	154893	28.841819429471	0.099999473822
101	155450	28.941818904159	0.099999474688
101	156015	29.041818379489	0.09999947533
101	156572	29.141817855224	0.099999475735
101	157129	29.241817331117	0.099999475893
101	157686	29.341816806918	0.099999475801
101	158243	29.441816282365	0.099999475447
101	158800	29.541815757202	0.099999474837
101	159357	29.641815231176	0.099999473974
101	159914	29.741827704042	0.100012472866
101	160471	29.841827175577	0.099999471535
101	161028	29.941826645576	0.099999469999
101	161593	30.041826113866	0.09999946829
101	162150	30.141825580306	0.09999946644
101	162707	30.241825044777	0.099999464471
101	163264	30.341824507196	0.099999462419
101	163821	30.441823967497	0.099999460301
101	164378	30.541823425639	0.099999458142
101	164935	30.641822881595	0.099999455956
101	165492	30.741822335353	0.099999453758
101	166049	30.841821786912	0.099999451559
101	166606	30.941821236263	0.099999449351
101	167171	31.041820683382	0.099999447119
101	167728	31.141820128222	0.09999944484
101	168285	31.241819570722	0.0999994425
101	168842	31.341819010815	0.099999440093
101	169399	31.441818448437	0.099999437622
101	169956	31.541817883517	0.09999943508
101	170513	31.641817315977	0.09999943246
101	171070	31.741816745732	0.099999429755
101	171627	31.841816172684	0.099999426952
101	172184	31.941815596716	0.099999424032
101	172749	32.0418150177	0.099999420984
101	173306	32.141827435487	0.100012417787
101	173863	32.241826849911	0.099999414424
101	174420	32.341826260798	0.099999410887
101	174977	32.441825667954	0.099999407156
101	175534	32.541825071157	0.099999403203
101	176091	32.641824470165	0.099999399008
101	176648	32.741823864706	0.099999394541
101	177205	32.841823254481	0.099999389775
101	177762	32.941822639161	0.09999938468
101	178327	33.041822018395	0.099999379234
101	178884	33.141821391812	0.099999373417
101	179441	33.241820759016	0.099999367204
101	179998	33.3418201196	0.099999360584
101	180555	33.441819473136	0.099999353536
101	181112	33.541818819183	0.099999346047
102	904	1.24052679124	0.099999459529
102	1460	1.340526250769	0.099999459529
102	2016	1.440538710298	0.100012459529
102	2572	1.540538169827	0.099999459529
102	3128	1.640537629356	0.099999459529
102	3684	1.740537088885	0.099999459529
102	4240	1.840536548414	0.099999459529
102	4796	1.940536007943	0.099999459529
102	5360	2.040535467472	0.099999459529
102	5916	2.140534927001	0.099999459529
102	6472	2.24053438653	0.099999459529
102	7028	2.340533846059	0.099999459529
102	7584	2.440533305588	0.099999459529
102	8140	2.540532765117	0.099999459529
102	8696	2.640532224646	0.099999459529
102	9252	2.740531684175	0.099999459529
102	9808	2.840531143704	0.099999459529
102	10364	2.940530603233	0.099999459529
102	10928	3.040530062762	0.099999459529
102	11484	3.140529522291	0.099999459529
102	12040	3.24052898182	0.099999459529
102	12596	3.340528441349	0.099999459529
102	13152	3.440527900878	0.099999459529
102	13708	3.540527360407	0.099999459529
102	14264	3.640526819936	0.099999459529
102	14820	3.740526279465	0.099999459529
102	15376	3.840538738994	0.100012459529
102	15932	3.940538198523	0.099999459529
102	16496	4.040537658052	0.099999459529
102	17052	4.140537117581	0.099999459529
102	17608	4.24053657711	0.099999459529
102	18164	4.340536036639	0.099999459529
102	18720	4.440535496168	0.099999459529
102	19276	4.540534955697	0.099999459529
102	19832	4.640534415226	0.099999459529
102	20388	4.740533874755	0.099999459529
102	20944	4.840533334284	0.099999459529
102	21500	4.940532793813	0.099999459529
102	22065	5.040532253342	0.099999459529
102	22622	5.140531712871	0.099999459529
102	23179	5.2405311724	0.099999459529
102	23736	5.340530631932	0.099999459532
102	24293	5.440530091476	0.099999459544
102	24844	5.540529551054	0.099999459578
102	25401	5.6405290107	0.099999459646
102	25958	5.740528470468	0.099999459768
102	26515	5.840527930425	0.099999459957
102	27072	5.940527390659	0.099999460234
102	27637	6.040526851268	0.099999460609
102	28194	6.140526312365	0.099999461097
102	28751	6.240538774075	0.10001246171
102	29308	6.340538236534	0.099999462459
102	29865	6.440537699891	0.099999463357
102	30422	6.540537164295	0.099999464404
102	30979	6.640536629905	0.09999946561
102	31536	6.740536096889	0.099999466984
102	32093	6.840535565412	0.099999468523
102	32650	6.940535035634	0.099999470222
102	33215	7.04053450771	0.099999472076
102	33772	7.140533981783	0.099999474073
102	34329	7.240533457972	0.099999476189
102	34886	7.340532936378	0.099999478406
102	35443	7.440532417071	0.099999480693
102	36000	7.540531900091	0.09999948302
102	36557	7.640531385446	0.099999485355
102	37114	7.740530873109	0.099999487663
102	37671	7.840530363022	0.099999489913
102	38228	7.940529855101	0.099999492079
102	38793	8.040529349229	0.099999494128
102	39350	8.14052884527	0.099999496041
102	39907	8.240528343062	0.099999497792
102	40464	8.340527842425	0.099999499363
102	41021	8.440527343161	0.099999500736
102	41578	8.540526845058	0.099999501897
102	42135	8.640526347885	0.099999502827
102	42692	8.740525851408	0.099999503523
102	43249	8.840538355376	0.100012503968
102	43806	8.940537859534	0.099999504158
102	44371	9.040537363624	0.09999950409
102	44934	9.140536867381	0.099999503757
102	45491	9.24053637054	0.099999503159
102	46048	9.340535872837	0.099999502297
102	46605	9.440535374004	0.099999501167
102	47162	9.54053487378	0.099999499776
102	47719	9.640534371906	0.099999498126
102	48276	9.740533868132	0.099999496226
102	48833	9.840533362223	0.099999494091
102	49390	9.940532853964	0.099999491741
102	49955	10.040532343166	0.099999489202
102	50512	10.140531829672	0.099999486506
102	51069	10.240531313363	0.099999483691
102	51626	10.340530794163	0.0999994808
102	52183	10.44053027203	0.099999477867
102	52740	10.540529746974	0.099999474944
102	53297	10.640529219033	0.099999472059
102	53854	10.740528688285	0.099999469252
102	54411	10.840528154837	0.099999466552
102	54968	10.940527618831	0.099999463994
102	55533	11.040527080433	0.099999461602
102	56090	11.140526539835	0.099999459402
102	56647	11.240525997246	0.099999457411
102	57204	11.340538452901	0.100012455655
102	57761	11.440537907046	0.099999454145
102	58318	11.540537359942	0.099999452896
102	58875	11.640536811858	0.099999451916
102	59432	11.740536263077	0.099999451219
102	59989	11.840535713889	0.099999450812
102	60546	11.940535164583	0.099999450694
102	61105	12.040534615455	0.099999450872
102	61662	12.140534066794	0.099999451339
102	62219	12.240533518884	0.09999945209
102	62776	12.340532971988	0.099999453104
102	63333	12.440532426351	0.099999454363
102	63890	12.540531882183	0.099999455832
102	64447	12.640531339665	0.099999457482
102	65004	12.74053079894	0.099999459275
102	65561	12.840530260108	0.099999461168
102	66118	12.940529723228	0.09999946312
102	66683	13.040529188324	0.099999465096
102	67240	13.140528655383	0.099999467059
102	67797	13.240528124359	0.099999468976
102	68354	13.340527595175	0.099999470816
102	68911	13.440527067724	0.099999472549
102	69468	13.540526541876	0.099999474152
102	70025	13.640526017472	0.099999475596
102	70582	13.740538494337	0.100012476865
102	71139	13.840537972276	0.099999477939
102	71696	13.940537451076	0.0999994788
102	72261	14.040536930513	0.099999479437
102	72818	14.140536410349	0.099999479836
102	73375	14.240535890337	0.099999479988
102	73932	14.340535370222	0.099999479885
102	74495	14.440534849745	0.099999479523
102	75052	14.540534328644	0.099999478899
102	75609	14.640533806656	0.099999478012
102	76166	14.740533283527	0.099999476871
102	76723	14.840532759014	0.099999475487
102	77280	14.940532232895	0.099999473881
102	77845	15.040531704976	0.099999472081
102	78402	15.14053117509	0.099999470114
102	78959	15.240530643111	0.099999468021
102	79516	15.340530108953	0.099999465842
102	80073	15.440529572562	0.099999463609
102	80630	15.54052903393	0.099999461368
102	81187	15.64052849308	0.09999945915
102	81744	15.74052795007	0.09999945699
102	82301	15.840527404987	0.099999454917
102	82858	15.940526857948	0.099999452961
102	83423	16.040526309095	0.099999451147
102	83980	16.140538758593	0.100012449498
102	84537	16.240538206629	0.099999448036
102	85094	16.340537653407	0.099999446778
102	85651	16.440537099148	0.099999445741
102	86208	16.540536544084	0.099999444936
102	86765	16.640535988466	0.099999444382
102	87322	16.740535432545	0.099999444079
102	87879	16.840534876582	0.099999444037
102	88436	16.940534320846	0.099999444264
102	88995	17.040533765607	0.099999444761
102	89552	17.140533211131	0.099999445524
102	90109	17.240532657678	0.099999446547
102	90666	17.340532105497	0.099999447819
102	91223	17.440531554811	0.099999449314
102	91780	17.540531005822	0.099999451011
102	92337	17.640530458694	0.099999452872
102	92894	17.740529913554	0.09999945486
102	93451	17.840529370494	0.09999945694
102	94008	17.940528829566	0.099999459072
102	94573	18.04052829078	0.099999461214
102	95130	18.140527754115	0.099999463335
102	95687	18.240527219515	0.0999994654
102	96244	18.340526686893	0.099999467378
102	96801	18.440526156136	0.099999469243
102	97358	18.540538627102	0.100012470966
102	97915	18.640538099627	0.099999472525
102	98472	18.740537573528	0.099999473901
102	99029	18.840537048601	0.099999475073
102	99586	18.940536524632	0.099999476031
102	100151	19.040536001383	0.099999476751
102	100708	19.140535478614	0.099999477231
102	101265	19.240534956072	0.099999477458
102	101822	19.340534433497	0.099999477425
102	102379	19.440533910623	0.099999477126
102	102942	19.540533387184	0.099999476561
102	103499	19.640532862915	0.099999475731
102	104056	19.740532337554	0.099999474639
102	104613	19.840531810861	0.099999473307
102	105170	19.940531282608	0.099999471747
102	105735	20.040530752598	0.09999946999
102	106292	20.140530220666	0.099999468068
102	106849	20.240529686685	0.099999466019
102	107406	20.340529150566	0.099999463881
102	107963	20.440528612258	0.099999461692
102	108520	20.54052807175	0.099999459492
102	109077	20.640527529066	0.099999457316
102	109634	20.740526984263	0.099999455197
102	110191	20.840526437426	0.099999453163
102	110748	20.940525888674	0.099999451248
102	111313	21.040538338146	0.100012449472
102	111870	21.14053778601	0.099999447864
102	112427	21.240537232449	0.099999446439
102	112984	21.34053667767	0.099999445221
102	113541	21.440536121889	0.099999444219
102	114098	21.540535565342	0.099999443453
102	114655	21.640535008272	0.09999944293
102	115212	21.740534450937	0.099999442665
102	115769	21.840533893594	0.099999442657
102	116326	21.940533336512	0.099999442918
102	116885	22.040532779957	0.099999443445
102	117442	22.140532224196	0.099999444239
102	117999	22.24053166949	0.099999445294
102	118556	22.340531116089	0.099999446599
102	119113	22.440530564212	0.099999448123
102	119670	22.540530014061	0.099999449849
102	120227	22.640529465801	0.09999945174
102	120784	22.740528919562	0.099999453761
102	121341	22.840528375434	0.099999455872
102	121898	22.940527833468	0.099999458034
102	122463	23.040527293674	0.099999460206
102	123020	23.14052675603	0.099999462356
102	123577	23.240526220479	0.099999464449
102	124134	23.340538686935	0.100012466456
102	124691	23.440538155286	0.099999468351
102	125248	23.540537625389	0.099999470103
102	125805	23.64053709708	0.099999471691
102	126362	23.740536570173	0.099999473093
102	126919	23.840536044466	0.099999474293
102	127476	23.940535519739	0.099999475273
102	128041	24.04053499576	0.099999476021
102	128598	24.140534472285	0.099999476525
102	129155	24.240533949063	0.099999476778
102	129712	24.340533425829	0.099999476766
102	130269	24.440532902321	0.099999476492
102	130832	24.54053237827	0.099999475949
102	131389	24.64053185341	0.09999947514
102	131946	24.740531327482	0.099999474072
102	132503	24.840530800238	0.099999472756
102	133060	24.940530271455	0.099999471217
102	133625	25.040529740935	0.09999946948
102	134182	25.140529208512	0.099999467577
102	134739	25.240528674057	0.099999465545
102	135296	25.340528137482	0.099999463425
102	135853	25.440527598737	0.099999461255
102	136410	25.540527057807	0.09999945907
102	136967	25.640526514719	0.099999456912
102	137524	25.740525969527	0.099999454808
102	138081	25.840538422319	0.100012452792
102	138638	25.94053787321	0.099999450891
102	139203	26.040537322341	0.099999449131
102	139760	26.140536769876	0.099999447535
102	140317	26.240536216001	0.099999446125
102	140874	26.34053566092	0.099999444919
102	141431	26.440535104851	0.099999443931
102	141988	26.540534548028	0.099999443177
102	142545	26.640533990696	0.099999442668
102	143102	26.740533433107	0.099999442411
102	143659	26.840532875523	0.099999442416
102	144216	26.940532318207	0.099999442684
102	144775	27.040531761429	0.099999443222
102	145332	27.140531205456	0.099999444027
102	145889	27.240530650548	0.099999445092
102	146446	27.34053009695	0.099999446402
102	147003	27.440529544886	0.099999447936
102	147560	27.540528994557	0.099999449671
102	148117	27.640528446127	0.09999945157
102	148674	27.740527899724	0.099999453597
102	149231	27.84052735544	0.099999455716
102	149788	27.940526813322	0.099999457882
102	150353	28.040526273382	0.09999946006
102	150910	28.140538735599	0.100012462217
102	151467	28.240538199918	0.099999464319
102	152024	28.340537666251	0.099999466333
102	152581	28.440537134481	0.09999946823
102	153138	28.540536604469	0.099999469988
102	153695	28.640536076049	0.09999947158
102	154252	28.740535549037	0.099999472988
102	154809	28.840535023231	0.099999474194
102	155366	28.940534498409	0.099999475178
102	155931	29.040533974341	0.099999475932
102	156488	29.14053345078	0.099999476439
102	157045	29.240532927473	0.099999476693
102	157602	29.340532404161	0.099999476688
102	158159	29.440531880577	0.099999476416
102	158722	29.540531356452	0.099999475875
102	159279	29.640530831523	0.099999475071
102	159836	29.740530305526	0.099999474003
102	160393	29.840529778218	0.099999472692
102	160950	29.940529249374	0.099999471156
102	161515	30.040528718795	0.099999469421
102	162072	30.140528186316	0.099999467521
102	162629	30.240527651797	0.099999465481
102	163186	30.340527115132	0.099999463335
102	163743	30.440526576243	0.099999461111
102	164300	30.540526035073	0.09999945883
102	164857	30.640538491589	0.100012456516
102	165408	30.740537945773	0.099999454184
102	165965	30.840537397619	0.099999451846
102	166522	30.940536847121	0.099999449502
102	167087	31.040536294254	0.099999447133
102	167644	31.140535738974	0.09999944472
102	168201	31.240535181224	0.09999944225
102	168758	31.340534620945	0.099999439721
102	169315	31.440534058077	0.099999437132
102	169872	31.540533492556	0.099999434479
102	170429	31.640532924312	0.099999431756
102	170986	31.740532353268	0.099999428956
102	171543	31.840531779332	0.099999426064
102	172100	31.940531202396	0.099999423064
102	172665	32.040530622341	0.099999419945
102	173222	32.140530039031	0.09999941669
102	173779	32.240529452319	0.099999413288
102	174336	32.340528862048	0.099999409729
102	174893	32.440528268048	0.099999406
102	175450	32.540527670119	0.099999402071
102	176007	32.640527068047	0.099999397928
102	176564	32.740526461578	0.099999393531
102	177121	32.840525850436	0.099999388858
102	177678	32.940538234307	0.100012383871
102	178243	33.040537612853	0.099999378546
102	178800	33.14053698571	0.099999372857
102	179357	33.240536352489	0.099999366779
102	179914	33.340535712784	0.099999360295
102	180471	33.44053506617	0.099999353386
102	181028	33.540534412203	0.099999346033
