file 1680292 1512143223                                         
version 2
run SinusoidalAccInjectionAttack-67-20171201-16:46:32-64693
attr CACCSpacing 20
attr attackAcc -10
attr attackPos 7
attr attackSpeed 150
attr attackStart 30
attr attacker 4
attr beaconInterval 0.1
attr configname SinusoidalAccInjectionAttack
attr controller 1
attr datetime 20171201-16:46:32
attr experiment SinusoidalAccInjectionAttack
attr fakeAcc "(4 == 4)"
attr fakePos "(4 == 2)"
attr fakeSpeed "(4 == 3)"
attr inifile omnetpp_67.ini
attr iterationvars "$attacker=4, $attackSpeed=150, $attackPos=7, $attackAcc=-10, $leaderSpeed=50, $controller=1, $CACCSpacing=20, $sController=\"CACC\", $attackStart=30, $0=20, $1=0, $nCars=8, $platoonSize=8, $nLanes=1, $beaconInterval=0.1, $priority=2, $packetSize=200, $ploegH=0.5, $leaderHeadway=1.2, $fakeSpeed=(4 == 3), $fakeAcc=(4 == 4), $fakePos=(4 == 2)"
attr iterationvarsf attacker=4,attackSpeed=150,attackPos=7,attackAcc=-10,leaderSpeed=50,controller=1,CACCSpacing=20,sController=CACC,attackStart=30,20,0,nCars=8,platoonSize=8,nLanes=1,beaconInterval=0.1,priority=2,packetSize=200,ploegH=0.5,leaderHeadway=1.2,fakeSpeed=(4_==_3),fakeAcc=(4_==_4),fakePos=(4_==_2)-
attr leaderHeadway 1.2
attr leaderSpeed 50
attr measurement "$attacker=4, $attackSpeed=150, $attackPos=7, $attackAcc=-10, $leaderSpeed=50, $controller=1, $CACCSpacing=20, $sController=\"CACC\", $attackStart=30, $0=20, $1=0, $nCars=8, $platoonSize=8, $nLanes=1, $beaconInterval=0.1, $priority=2, $packetSize=200, $ploegH=0.5, $leaderHeadway=1.2, $fakeSpeed=(4 == 3), $fakeAcc=(4 == 4), $fakePos=(4 == 2)"
attr nCars 8
attr nLanes 1
attr network scenario
attr packetSize 200
attr platoonSize 8
attr ploegH 0.5
attr priority 2
attr processid 64693
attr repetition 2
attr replication #2
attr resultdir results
attr runnumber 67
attr sController "\"CACC\""
attr seedset 2
param **.coreDebug false
param **.debug false
param **.headway 0.1s
param **.numberOfCars 8
param **.numberOfCarsPerPlatoon 8
param **.numberOfLanes 1
param **.numericController 1
param **.traffic.nCars 8
param **.traffic.nLanes 1
param **.traffic.platoonInsertDistance 20m
param **.traffic.platoonInsertHeadway 0s
param **.traffic.platoonInsertSpeed 50kmph
param **.traffic.platoonInsertTime "1 s"
param **.traffic.platoonLeaderHeadway 1.2s
param **.traffic.platoonSize 8
param **.traffic.platooningVType "\"vtypeauto\""
param **.traffic_type "\"PlatoonsTrafficManager\""
param *.**.nic.mac1609_4.bitrate 6Mbps
param *.**.nic.mac1609_4.txPower 100mW
param *.**.nic.mac1609_4.useServiceChannel false
param *.**.nic.phy80211p.analogueModels "xmldoc(\"config.xml\")"
param *.**.nic.phy80211p.decider "xmldoc(\"config.xml\")"
param *.**.nic.phy80211p.maxTXPower 100mW
param *.**.nic.phy80211p.sensitivity -94dBm
param *.**.nic.phy80211p.thermalNoise -95dBm
param *.**.nic.phy80211p.usePropagationDelay true
param *.**.nic.phy80211p.useThermalNoise true
param *.annotations.draw false
param *.connectionManager.alpha 2.0
param *.connectionManager.carrierFrequency "5.890e9 Hz"
param *.connectionManager.pMax 100mW
param *.connectionManager.sat -94dBm
param *.connectionManager.sendDirect true
param *.manager.autoShutdown true
param *.manager.commandLine "\"sumo --remote-port $port --seed $seed --configuration-file $configFile\""
param *.manager.configFile "\"./sumocfg/freeway.sumo.cfg\""
param *.manager.host "\"localhost\""
param *.manager.margin 25
param *.manager.moduleDisplayString "\"\""
param *.manager.moduleName "\"node\""
param *.manager.moduleType "\"Car\""
param *.manager.updateInterval 0.01s
param *.node[*].appl.attackStart 30s
param *.node[*].appl.attackerType 4
param *.node[*].appl.simulationDuration "60 s"
param *.node[*].appl_type "\"SimplePlatooningApp\""
param *.node[*].helper.nCars 8
param *.node[*].helper.nLanes 1
param *.node[*].helper.platoonSize 8
param *.node[*].helper_type "\"PositionHelper\""
param *.node[*].mobility.x 0
param *.node[*].mobility.y 0
param *.node[*].mobility.z 1.895
param *.node[*].prot.attackStart 30s
param *.node[*].prot.attackerType 4
param *.node[*].prot.attackingNode 3
param *.node[*].prot.beaconingInterval 0.1s
param *.node[*].prot.fakeAcc "(4 == 4)"
param *.node[*].prot.fakePos "(4 == 2)"
param *.node[*].prot.fakeSpeed "(4 == 3)"
param *.node[*].prot.maliciousAcc "-10 mpss"
param *.node[*].prot.maliciousSpeed 150kmph
param *.node[*].prot.packetSize 200
param *.node[*].prot.priority 2
param *.node[*].prot.shiftX "7 m"
param *.node[*].prot.useControllerAcceleration true
param *.node[*].protocol_type "\"SimplePlatooningBeaconing\""
param *.node[*].scenario.accHeadway 0.1s
param *.node[*].scenario.caccC1 0.5
param *.node[*].scenario.caccOmegaN "0.2 Hz"
param *.node[*].scenario.caccSpacing 20m
param *.node[*].scenario.caccXi 1
param *.node[*].scenario.controller "\"CACC\""
param *.node[*].scenario.engineTau "0.5 s"
param *.node[*].scenario.leaderHeadway 1.2s
param *.node[*].scenario.leaderSpeed 50kmph
param *.node[*].scenario.ploegH 0.5s
param *.node[*].scenario.ploegKd 0.7
param *.node[*].scenario.ploegKp 0.2
param *.node[*].scenario.useRealisticEngine false
param *.node[*].scenario_type "\"SinusoidalScenario\""
param *.node[*].unicast.packetLossRate 0
param *.obstacles.debug false
param *.playgroundSizeX 65000m
param *.playgroundSizeY 25000m
param *.playgroundSizeZ 50m
param *.world.use2D false
param *.world.useTorus false

vector 0  scenario.node[0].appl  distance  ETV
vector 1  scenario.node[0].appl  relativeSpeed  ETV
vector 2  scenario.node[0].appl  nodeId  ETV
vector 6  scenario.node[0].appl  acceleration  ETV
vector 7  scenario.node[0].appl  controllerAcceleration  ETV
vector 3  scenario.node[0].appl  speed  ETV
vector 4  scenario.node[0].appl  posx  ETV
vector 5  scenario.node[0].appl  posy  ETV
vector 22  scenario.node[1].appl  distance  ETV
vector 23  scenario.node[1].appl  relativeSpeed  ETV
vector 24  scenario.node[1].appl  nodeId  ETV
vector 28  scenario.node[1].appl  acceleration  ETV
vector 29  scenario.node[1].appl  controllerAcceleration  ETV
vector 25  scenario.node[1].appl  speed  ETV
vector 26  scenario.node[1].appl  posx  ETV
vector 27  scenario.node[1].appl  posy  ETV
vector 44  scenario.node[2].appl  distance  ETV
vector 45  scenario.node[2].appl  relativeSpeed  ETV
vector 46  scenario.node[2].appl  nodeId  ETV
vector 50  scenario.node[2].appl  acceleration  ETV
vector 51  scenario.node[2].appl  controllerAcceleration  ETV
vector 47  scenario.node[2].appl  speed  ETV
vector 48  scenario.node[2].appl  posx  ETV
vector 49  scenario.node[2].appl  posy  ETV
vector 66  scenario.node[3].appl  distance  ETV
vector 67  scenario.node[3].appl  relativeSpeed  ETV
vector 68  scenario.node[3].appl  nodeId  ETV
vector 72  scenario.node[3].appl  acceleration  ETV
vector 73  scenario.node[3].appl  controllerAcceleration  ETV
vector 69  scenario.node[3].appl  speed  ETV
vector 70  scenario.node[3].appl  posx  ETV
vector 71  scenario.node[3].appl  posy  ETV
vector 88  scenario.node[4].appl  distance  ETV
vector 89  scenario.node[4].appl  relativeSpeed  ETV
vector 90  scenario.node[4].appl  nodeId  ETV
vector 94  scenario.node[4].appl  acceleration  ETV
vector 95  scenario.node[4].appl  controllerAcceleration  ETV
vector 91  scenario.node[4].appl  speed  ETV
vector 92  scenario.node[4].appl  posx  ETV
vector 93  scenario.node[4].appl  posy  ETV
vector 110  scenario.node[5].appl  distance  ETV
vector 111  scenario.node[5].appl  relativeSpeed  ETV
vector 112  scenario.node[5].appl  nodeId  ETV
vector 116  scenario.node[5].appl  acceleration  ETV
vector 117  scenario.node[5].appl  controllerAcceleration  ETV
vector 113  scenario.node[5].appl  speed  ETV
vector 114  scenario.node[5].appl  posx  ETV
vector 115  scenario.node[5].appl  posy  ETV
vector 132  scenario.node[6].appl  distance  ETV
vector 133  scenario.node[6].appl  relativeSpeed  ETV
vector 134  scenario.node[6].appl  nodeId  ETV
vector 138  scenario.node[6].appl  acceleration  ETV
vector 139  scenario.node[6].appl  controllerAcceleration  ETV
vector 135  scenario.node[6].appl  speed  ETV
vector 136  scenario.node[6].appl  posx  ETV
vector 137  scenario.node[6].appl  posy  ETV
vector 154  scenario.node[7].appl  distance  ETV
vector 155  scenario.node[7].appl  relativeSpeed  ETV
vector 156  scenario.node[7].appl  nodeId  ETV
vector 160  scenario.node[7].appl  acceleration  ETV
vector 161  scenario.node[7].appl  controllerAcceleration  ETV
vector 157  scenario.node[7].appl  speed  ETV
vector 158  scenario.node[7].appl  posx  ETV
vector 159  scenario.node[7].appl  posy  ETV
vector 168  scenario.node[7].prot  frontDelay  ETV
vector 166  scenario.node[7].prot  frontDelayId  ETV
vector 146  scenario.node[6].prot  frontDelay  ETV
vector 144  scenario.node[6].prot  frontDelayId  ETV
vector 35  scenario.node[1].prot  leaderDelay  ETV
vector 33  scenario.node[1].prot  leaderDelayId  ETV
vector 36  scenario.node[1].prot  frontDelay  ETV
vector 34  scenario.node[1].prot  frontDelayId  ETV
vector 57  scenario.node[2].prot  leaderDelay  ETV
vector 55  scenario.node[2].prot  leaderDelayId  ETV
vector 79  scenario.node[3].prot  leaderDelay  ETV
vector 77  scenario.node[3].prot  leaderDelayId  ETV
vector 101  scenario.node[4].prot  leaderDelay  ETV
vector 99  scenario.node[4].prot  leaderDelayId  ETV
vector 123  scenario.node[5].prot  leaderDelay  ETV
vector 121  scenario.node[5].prot  leaderDelayId  ETV
vector 145  scenario.node[6].prot  leaderDelay  ETV
vector 143  scenario.node[6].prot  leaderDelayId  ETV
vector 167  scenario.node[7].prot  leaderDelay  ETV
vector 165  scenario.node[7].prot  leaderDelayId  ETV
vector 102  scenario.node[4].prot  frontDelay  ETV
vector 100  scenario.node[4].prot  frontDelayId  ETV
vector 80  scenario.node[3].prot  frontDelay  ETV
vector 78  scenario.node[3].prot  frontDelayId  ETV
vector 124  scenario.node[5].prot  frontDelay  ETV
vector 122  scenario.node[5].prot  frontDelayId  ETV
vector 58  scenario.node[2].prot  frontDelay  ETV
vector 56  scenario.node[2].prot  frontDelayId  ETV
vector 8  scenario.node[0].prot  nodeId  ETV
vector 9  scenario.node[0].prot  busyTime  ETV
vector 10  scenario.node[0].prot  collisions  ETV
vector 30  scenario.node[1].prot  nodeId  ETV
vector 31  scenario.node[1].prot  busyTime  ETV
vector 32  scenario.node[1].prot  collisions  ETV
vector 52  scenario.node[2].prot  nodeId  ETV
vector 53  scenario.node[2].prot  busyTime  ETV
vector 54  scenario.node[2].prot  collisions  ETV
vector 74  scenario.node[3].prot  nodeId  ETV
vector 75  scenario.node[3].prot  busyTime  ETV
vector 76  scenario.node[3].prot  collisions  ETV
vector 96  scenario.node[4].prot  nodeId  ETV
vector 97  scenario.node[4].prot  busyTime  ETV
vector 98  scenario.node[4].prot  collisions  ETV
vector 118  scenario.node[5].prot  nodeId  ETV
vector 119  scenario.node[5].prot  busyTime  ETV
vector 120  scenario.node[5].prot  collisions  ETV
vector 140  scenario.node[6].prot  nodeId  ETV
vector 141  scenario.node[6].prot  busyTime  ETV
vector 142  scenario.node[6].prot  collisions  ETV
vector 162  scenario.node[7].prot  nodeId  ETV
vector 163  scenario.node[7].prot  busyTime  ETV
vector 164  scenario.node[7].prot  collisions  ETV
7	11082 13860 232 328174 1.11 59.91 589 -1.5 1.5 -14.445969899918 993.24092361736
6	24942 18587 232 328174 1.11 59.91 589 -1.472274679513 1.4513434175798 -12.507264912644 675.29835211523
5	43529 12081 232 328174 1.11 59.91 589 36.55 36.55 21527.95 786846.5725
4	55610 17890 232 328174 1.11 59.91 589 204.28218421923 1025.2649827172 362921.40964264 256667933.95653
3	73500 17901 232 328174 1.11 59.91 589 12.599076970844 15.853603639796 8223.2832500118 115251.79065057
1	91401 9725 232 328174 1.11 59.91 589 0 0 0 0
0	101126 10314 232 328174 1.11 59.91 589 -1 -1 -589 589
2	111440 9725 232 328174 1.11 59.91 589 0 0 0 0
10	121165 858 5168 328662 2 60 59 0 0 0 0
9	122023 1154 5168 328662 2 60 59 0.023297 0.02625 1.545797 0.040508375209
8	123177 799 5168 328662 2 60 59 0 0 0 0
29	123976 17080 233 328175 1.11 59.91 589 -1.5201885302002 1.5215379200046 -16.62166992374 995.58727584902
28	141056 19172 233 328175 1.11 59.91 589 -1.4845166970579 1.4492363478547 -12.160480253553 675.5850600829
27	160228 12670 233 328175 1.11 59.91 589 36.55 36.55 21527.95 786846.5725
26	172898 18499 233 328175 1.11 59.91 589 180.28218421936 1001.2104662621 348728.42003738 239507563.97261
25	191397 18489 233 328175 1.11 59.91 589 12.593700960239 15.849344566939 8222.7536789342 115237.04028535
23	209886 20103 233 328175 1.11 59.91 589 -0.085666453968253 0.092346609178076 0.65464372670539 2.432917490974
22	229989 18494 233 328175 1.11 59.91 589 19.942679243784 20.230457319014 11836.979013839 237887.94121767
24	248483 10314 233 328175 1.11 59.91 589 1 1 589 589
36	258797 23689 1034 328420 1.262218481716 59.962216439299 588 0.099987181392 0.10001283612 58.799997718801 5.879999547406
35	282486 23689 1034 328420 1.262218481716 59.962216439299 588 0.099987181392 0.10001283612 58.799997718801 5.879999547406
34	306175 16111 1034 328420 1.262218481716 59.962216439299 588 1 1 588 588
33	322286 16111 1034 328420 1.262218481716 59.962216439299 588 1 1 588 588
32	338397 858 5169 328663 2 60 59 0 0 0 0
31	339255 1213 5169 328663 2 60 59 0.023296 0.02625 1.545796 0.040508328616
30	340468 858 5169 328663 2 60 59 1 1 59 59
51	341326 19044 234 328176 1.11 59.91 589 -1.4917898291341 1.4990053099557 -15.174462866186 962.21972670145
50	360370 19143 234 328176 1.11 59.91 589 -1.4755502010074 1.441587675785 -11.894522497857 670.56364715234
49	379513 12670 234 328176 1.11 59.91 589 36.55 36.55 21527.95 786846.5725
48	392183 18499 234 328176 1.11 59.91 589 156.28218421936 977.18368427318 334576.27546559 223085373.47904
47	410682 18499 234 328176 1.11 59.91 589 12.597121993093 15.844083349125 8222.4926841487 115225.90518284
45	429181 20343 234 328176 1.11 59.91 589 -0.017774646240298 0.0165781677547 0.38259958803602 0.0573155956417
44	449524 18484 234 328176 1.11 59.91 589 19.984493294671 20.070358956118 11796.139351897 236246.30788779
46	468008 10314 234 328176 1.11 59.91 589 2 2 1178 2356
58	478322 23713 1312 328701 1.302598202214 60.00259697862 588 0.099987403057 0.100012763807 58.799998537624 5.8799997111519
57	502035 23696 1040 328426 1.262218561772 59.96221651944 588 0.099987181402 0.100012836125 58.799997718886 5.879999547423
56	525731 16121 1312 328701 1.302598202214 60.00259697862 588 2 2 1176 2352
55	541852 16113 1040 328426 1.262218561772 59.96221651944 588 2 2 1176 2352
54	557965 858 5170 328664 2 60 59 0 0 0 0
53	558823 1213 5170 328664 2 60 59 0.023297 0.02625 1.545797 0.040508375209
52	560036 858 5170 328664 2 60 59 2 2 118 236
73	560894 18993 235 328177 1.11 59.91 589 -1.5133685768604 1.5080594306659 -15.672890268258 986.36881143671
72	579887 19190 235 328177 1.11 59.91 589 -1.4653396864322 1.4364933077832 -11.753431347335 662.08108406871
71	599077 12670 235 328177 1.11 59.91 589 36.55 36.55 21527.95 786846.5725
70	611747 18491 235 328177 1.11 59.91 589 132.28219184875 953.20669433994 320446.67291552 207373437.11616
69	630238 18483 235 328177 1.11 59.91 589 12.605808640956 15.835137867499 8222.7285311576 115227.37211126
67	648721 20559 235 328177 1.11 59.91 589 -0.015548639735037 0.011230169041433 -0.11690178396639 0.020984442763939
66	669280 18486 235 328177 1.11 59.91 589 19.96213031092 20.035282210702 11773.607267012 235344.50033985
68	687766 10314 235 328177 1.11 59.91 589 3 3 1767 5301
80	698080 23689 1176 328556 1.287874801937 59.987872759366 588 0.099987398104 0.100012763801 58.799997718647 5.8799995473565
79	721769 23698 1046 328432 1.262218641827 59.962216599416 588 0.099987181408 0.100012836129 58.799997718807 5.8799995474072
78	745467 16107 1176 328556 1.287874801937 59.987872759366 588 3 3 1764 5292
77	761574 16110 1046 328432 1.262218641827 59.962216599416 588 3 3 1764 5292
76	777684 858 5171 328665 2 60 59 0 0 0 0
75	778542 1213 5171 328665 2 60 59 0.023297 0.02625 1.545797 0.040508375209
74	779755 858 5171 328665 2 60 59 3 3 177 531
95	780613 19132 236 328178 1.11 59.91 589 -4.3617864982725 1.5 -11.717642797661 823.9997267067
94	799745 19268 236 328178 1.11 59.91 589 -3.1436840108723 1.4289148554431 -8.2323721272548 608.66237242594
93	819013 12670 236 328178 1.11 59.91 589 36.55 36.55 21527.95 786846.5725
92	831683 18496 236 328178 1.11 59.91 589 108.28219184875 806.43162611546 281093.66977675 155868071.56491
91	850179 18490 236 328178 1.11 59.91 589 3.4429078310245 15.824933497305 6995.0999261381 89114.333128501
89	868669 19584 236 328178 1.11 59.91 589 -0.32916693933572 9.6093597953773 1227.746139333 8310.4403023488
88	888253 18481 236 328178 1.11 59.91 589 19.979107556697 142.87709939258 36972.450566665 3836186.424273
90	906734 10314 236 328178 1.11 59.91 589 4 4 2356 9424
102	917048 24279 1108 328506 1.276580721882 59.976579088934 588 0.09998740061 0.100012763824 58.79999812827 5.879999629281
101	941327 24295 1052 328438 1.262218721883 59.962217088946 588 0.099987184606 0.100012838923 58.799998128281 5.8799996293021
100	965622 16690 1108 328506 1.276580721882 59.976579088934 588 4 4 2352 9408
99	982312 16114 1052 328438 1.262218721883 59.962217088946 588 4 4 2352 9408
98	998426 858 5172 328666 2 60 59 0 0 0 0
97	999284 1213 5172 328666 2 60 59 0.023297 0.02625 1.545797 0.040508375209
96	1000497 858 5172 328666 2 60 59 4 4 236 944
117	1001355 19190 237 328179 1.11 59.91 589 -2.4501953629087 1.6565701025373 -18.077624786917 828.40032859851
116	1020545 19851 237 328179 1.11 59.91 589 -2.0894011269714 1.5728284719311 -15.570161323278 586.79934974057
115	1040396 13259 237 328179 1.11 59.91 589 36.55 36.55 21527.95 786846.5725
114	1053655 19085 237 328179 1.11 59.91 589 84.282188034058 785.10519096591 269863.22661921 146183276.08838
113	1072740 19083 237 328179 1.11 59.91 589 5.4852931172656 15.826796404689 7021.5775096316 88372.401675613
111	1091823 20231 237 328179 1.11 59.91 589 -3.646538704343 1.4751895540696 -26.395259772253 596.111157563
110	1112054 19075 237 328179 1.11 59.91 589 2.0762630272413 20.019410409218 8874.972709213 156249.20826213
112	1131129 10903 237 328179 1.11 59.91 589 5 5 2945 14725
124	1142032 24287 1244 328624 1.297504962048 59.997503320206 588 0.099987365578 0.100012763424 58.799998119376 5.8799996275057
123	1166319 24284 1058 328444 1.262218801938 59.962217160206 588 0.099987184049 0.100012837724 58.799998119486 5.879999627543
122	1190603 16707 1244 328624 1.297504962048 59.997503320206 588 5 5 2940 14700
121	1207310 16699 1058 328444 1.262218801938 59.962217160206 588 5 5 2940 14700
120	1224009 917 5173 328667 2 60 59 0 0 0 0
119	1224926 1272 5173 328667 2 60 59 0.023297 0.02625 1.545797 0.040508375209
118	1226198 917 5173 328667 2 60 59 5 5 295 1475
139	1227115 19767 238 328180 1.11 59.91 589 -2.4352297922366 1.7064888594551 -24.099820059308 888.67863713575
138	1246882 19872 238 328180 1.11 59.91 589 -2.1941407029693 1.634031862773 -21.543157073584 628.67036538761
137	1266754 13259 238 328180 1.11 59.91 589 36.55 36.55 21527.95 786846.5725
136	1280013 19090 238 328180 1.11 59.91 589 60.282188034058 765.06055251065 258526.80098522 136923534.54719
135	1299103 19069 238 328180 1.11 59.91 589 6.1502637005491 15.830717199506 7060.9226434545 88532.747672711
133	1318172 20469 238 328180 1.11 59.91 589 -2.3247431673408 1.0026867484659 -39.189432209664 351.76358601384
132	1338641 19069 238 328180 1.11 59.91 589 4.7387258736495 20.027592313754 8981.2125366654 155929.40025635
134	1357710 10903 238 328180 1.11 59.91 589 6 6 3534 21204
146	1368613 24300 970 328350 1.247596081439 59.947593624871 588 0.099987332651 0.100012762725 58.79999730465 5.8799994645623
145	1392913 24302 1064 328450 1.262218881993 59.962217227167 588 0.099987183459 0.100012837023 58.799998106392 5.8799996249242
144	1417215 16712 970 328350 1.247596081439 59.947593624871 588 6 6 3528 21168
143	1433927 16701 1064 328450 1.262218881993 59.962217227167 588 6 6 3528 21168
142	1450628 917 5174 328668 2 60 59 0 0 0 0
141	1451545 1272 5174 328668 2 60 59 0.023297 0.02625 1.545797 0.040508375209
140	1452817 917 5174 328668 2 60 59 6 6 354 2124
161	1453734 19694 239 328181 1.11 59.91 589 -2.2356130344032 1.7199509113141 -29.705307860707 916.60536557951
160	1473428 19820 239 328181 1.11 59.91 589 -2.1333412075347 1.6331637718038 -27.134339136101 651.84212425766
159	1493248 13259 239 328181 1.11 59.91 589 36.55 36.55 21527.95 786846.5725
158	1506507 19093 239 328181 1.11 59.91 589 36.282188987732 746.29501661201 247031.66571423 128016929.41079
157	1525600 19105 239 328181 1.11 59.91 589 6.9023695184505 15.825600952068 7113.071584104 89290.775155604
155	1544705 20503 239 328181 1.11 59.91 589 -1.6292129264266 0.72714818735713 -51.933509078742 227.65030436363
154	1565208 19100 239 328181 1.11 59.91 589 6.1810756966801 20.013502933043 9140.1782498003 158270.7456402
156	1584308 10903 239 328181 1.11 59.91 589 7 7 4123 28861
168	1595211 24308 832 328212 1.212137841273 59.912135428455 588 0.099987454098 0.100012762793 58.7999973484 5.8799994730029
167	1619519 24264 1070 328456 1.262218962049 59.962217289856 588 0.099987182921 0.100012836619 58.799998089025 5.8799996214508
166	1643783 16716 832 328212 1.212137841273 59.912135428455 588 7 7 4116 28812
165	1660499 16687 1070 328456 1.262218962049 59.962217289856 588 7 7 4116 28812
164	1677186 917 5175 328669 2 60 59 0 0 0 0
163	1678103 1272 5175 328669 2 60 59 0.023297 0.02625 1.545797 0.040508375209
162	1679375 917 5175 328669 2 60 59 7 7 413 2891
