file 1683676 1512143682                                         
version 2
run SinusoidalAccInjectionAttack-144-20171201-16:54:11-16185
attr CACCSpacing 5
attr attackAcc 0
attr attackPos 7
attr attackSpeed 150
attr attackStart 30
attr attacker 4
attr beaconInterval 0.1
attr configname SinusoidalAccInjectionAttack
attr controller 1
attr datetime 20171201-16:54:11
attr experiment SinusoidalAccInjectionAttack
attr fakeAcc "(4 == 4)"
attr fakePos "(4 == 2)"
attr fakeSpeed "(4 == 3)"
attr inifile omnetpp_144.ini
attr iterationvars "$attacker=4, $attackSpeed=150, $attackPos=7, $attackAcc=0, $leaderSpeed=100, $controller=1, $CACCSpacing=5, $sController=\"CACC\", $attackStart=30, $0=5, $1=0, $nCars=8, $platoonSize=8, $nLanes=1, $beaconInterval=0.1, $priority=2, $packetSize=200, $ploegH=0.5, $leaderHeadway=1.2, $fakeSpeed=(4 == 3), $fakeAcc=(4 == 4), $fakePos=(4 == 2)"
attr iterationvarsf attacker=4,attackSpeed=150,attackPos=7,attackAcc=0,leaderSpeed=100,controller=1,CACCSpacing=5,sController=CACC,attackStart=30,5,0,nCars=8,platoonSize=8,nLanes=1,beaconInterval=0.1,priority=2,packetSize=200,ploegH=0.5,leaderHeadway=1.2,fakeSpeed=(4_==_3),fakeAcc=(4_==_4),fakePos=(4_==_2)-
attr leaderHeadway 1.2
attr leaderSpeed 100
attr measurement "$attacker=4, $attackSpeed=150, $attackPos=7, $attackAcc=0, $leaderSpeed=100, $controller=1, $CACCSpacing=5, $sController=\"CACC\", $attackStart=30, $0=5, $1=0, $nCars=8, $platoonSize=8, $nLanes=1, $beaconInterval=0.1, $priority=2, $packetSize=200, $ploegH=0.5, $leaderHeadway=1.2, $fakeSpeed=(4 == 3), $fakeAcc=(4 == 4), $fakePos=(4 == 2)"
attr nCars 8
attr nLanes 1
attr network scenario
attr packetSize 200
attr platoonSize 8
attr ploegH 0.5
attr priority 2
attr processid 16185
attr repetition 4
attr replication #4
attr resultdir results
attr runnumber 144
attr sController "\"CACC\""
attr seedset 4
param **.coreDebug false
param **.debug false
param **.headway 0.1s
param **.numberOfCars 8
param **.numberOfCarsPerPlatoon 8
param **.numberOfLanes 1
param **.numericController 1
param **.traffic.nCars 8
param **.traffic.nLanes 1
param **.traffic.platoonInsertDistance 5m
param **.traffic.platoonInsertHeadway 0s
param **.traffic.platoonInsertSpeed 100kmph
param **.traffic.platoonInsertTime "1 s"
param **.traffic.platoonLeaderHeadway 1.2s
param **.traffic.platoonSize 8
param **.traffic.platooningVType "\"vtypeauto\""
param **.traffic_type "\"PlatoonsTrafficManager\""
param *.**.nic.mac1609_4.bitrate 6Mbps
param *.**.nic.mac1609_4.txPower 100mW
param *.**.nic.mac1609_4.useServiceChannel false
param *.**.nic.phy80211p.analogueModels "xmldoc(\"config.xml\")"
param *.**.nic.phy80211p.decider "xmldoc(\"config.xml\")"
param *.**.nic.phy80211p.maxTXPower 100mW
param *.**.nic.phy80211p.sensitivity -94dBm
param *.**.nic.phy80211p.thermalNoise -95dBm
param *.**.nic.phy80211p.usePropagationDelay true
param *.**.nic.phy80211p.useThermalNoise true
param *.annotations.draw false
param *.connectionManager.alpha 2.0
param *.connectionManager.carrierFrequency "5.890e9 Hz"
param *.connectionManager.pMax 100mW
param *.connectionManager.sat -94dBm
param *.connectionManager.sendDirect true
param *.manager.autoShutdown true
param *.manager.commandLine "\"sumo --remote-port $port --seed $seed --configuration-file $configFile\""
param *.manager.configFile "\"./sumocfg/freeway.sumo.cfg\""
param *.manager.host "\"localhost\""
param *.manager.margin 25
param *.manager.moduleDisplayString "\"\""
param *.manager.moduleName "\"node\""
param *.manager.moduleType "\"Car\""
param *.manager.updateInterval 0.01s
param *.node[*].appl.attackStart 30s
param *.node[*].appl.attackerType 4
param *.node[*].appl.simulationDuration "60 s"
param *.node[*].appl_type "\"SimplePlatooningApp\""
param *.node[*].helper.nCars 8
param *.node[*].helper.nLanes 1
param *.node[*].helper.platoonSize 8
param *.node[*].helper_type "\"PositionHelper\""
param *.node[*].mobility.x 0
param *.node[*].mobility.y 0
param *.node[*].mobility.z 1.895
param *.node[*].prot.attackStart 30s
param *.node[*].prot.attackerType 4
param *.node[*].prot.attackingNode 3
param *.node[*].prot.beaconingInterval 0.1s
param *.node[*].prot.fakeAcc "(4 == 4)"
param *.node[*].prot.fakePos "(4 == 2)"
param *.node[*].prot.fakeSpeed "(4 == 3)"
param *.node[*].prot.maliciousAcc "0 mpss"
param *.node[*].prot.maliciousSpeed 150kmph
param *.node[*].prot.packetSize 200
param *.node[*].prot.priority 2
param *.node[*].prot.shiftX "7 m"
param *.node[*].prot.useControllerAcceleration true
param *.node[*].protocol_type "\"SimplePlatooningBeaconing\""
param *.node[*].scenario.accHeadway 0.1s
param *.node[*].scenario.caccC1 0.5
param *.node[*].scenario.caccOmegaN "0.2 Hz"
param *.node[*].scenario.caccSpacing 5m
param *.node[*].scenario.caccXi 1
param *.node[*].scenario.controller "\"CACC\""
param *.node[*].scenario.engineTau "0.5 s"
param *.node[*].scenario.leaderHeadway 1.2s
param *.node[*].scenario.leaderSpeed 100kmph
param *.node[*].scenario.ploegH 0.5s
param *.node[*].scenario.ploegKd 0.7
param *.node[*].scenario.ploegKp 0.2
param *.node[*].scenario.useRealisticEngine false
param *.node[*].scenario_type "\"SinusoidalScenario\""
param *.node[*].unicast.packetLossRate 0
param *.obstacles.debug false
param *.playgroundSizeX 65000m
param *.playgroundSizeY 25000m
param *.playgroundSizeZ 50m
param *.world.use2D false
param *.world.useTorus false

vector 0  scenario.node[0].appl  distance  ETV
vector 1  scenario.node[0].appl  relativeSpeed  ETV
vector 2  scenario.node[0].appl  nodeId  ETV
vector 6  scenario.node[0].appl  acceleration  ETV
vector 7  scenario.node[0].appl  controllerAcceleration  ETV
vector 3  scenario.node[0].appl  speed  ETV
vector 4  scenario.node[0].appl  posx  ETV
vector 5  scenario.node[0].appl  posy  ETV
vector 22  scenario.node[1].appl  distance  ETV
vector 23  scenario.node[1].appl  relativeSpeed  ETV
vector 24  scenario.node[1].appl  nodeId  ETV
vector 28  scenario.node[1].appl  acceleration  ETV
vector 29  scenario.node[1].appl  controllerAcceleration  ETV
vector 25  scenario.node[1].appl  speed  ETV
vector 26  scenario.node[1].appl  posx  ETV
vector 27  scenario.node[1].appl  posy  ETV
vector 44  scenario.node[2].appl  distance  ETV
vector 45  scenario.node[2].appl  relativeSpeed  ETV
vector 46  scenario.node[2].appl  nodeId  ETV
vector 50  scenario.node[2].appl  acceleration  ETV
vector 51  scenario.node[2].appl  controllerAcceleration  ETV
vector 47  scenario.node[2].appl  speed  ETV
vector 48  scenario.node[2].appl  posx  ETV
vector 49  scenario.node[2].appl  posy  ETV
vector 66  scenario.node[3].appl  distance  ETV
vector 67  scenario.node[3].appl  relativeSpeed  ETV
vector 68  scenario.node[3].appl  nodeId  ETV
vector 72  scenario.node[3].appl  acceleration  ETV
vector 73  scenario.node[3].appl  controllerAcceleration  ETV
vector 69  scenario.node[3].appl  speed  ETV
vector 70  scenario.node[3].appl  posx  ETV
vector 71  scenario.node[3].appl  posy  ETV
vector 88  scenario.node[4].appl  distance  ETV
vector 89  scenario.node[4].appl  relativeSpeed  ETV
vector 90  scenario.node[4].appl  nodeId  ETV
vector 94  scenario.node[4].appl  acceleration  ETV
vector 95  scenario.node[4].appl  controllerAcceleration  ETV
vector 91  scenario.node[4].appl  speed  ETV
vector 92  scenario.node[4].appl  posx  ETV
vector 93  scenario.node[4].appl  posy  ETV
vector 110  scenario.node[5].appl  distance  ETV
vector 111  scenario.node[5].appl  relativeSpeed  ETV
vector 112  scenario.node[5].appl  nodeId  ETV
vector 116  scenario.node[5].appl  acceleration  ETV
vector 117  scenario.node[5].appl  controllerAcceleration  ETV
vector 113  scenario.node[5].appl  speed  ETV
vector 114  scenario.node[5].appl  posx  ETV
vector 115  scenario.node[5].appl  posy  ETV
vector 132  scenario.node[6].appl  distance  ETV
vector 133  scenario.node[6].appl  relativeSpeed  ETV
vector 134  scenario.node[6].appl  nodeId  ETV
vector 138  scenario.node[6].appl  acceleration  ETV
vector 139  scenario.node[6].appl  controllerAcceleration  ETV
vector 135  scenario.node[6].appl  speed  ETV
vector 136  scenario.node[6].appl  posx  ETV
vector 137  scenario.node[6].appl  posy  ETV
vector 154  scenario.node[7].appl  distance  ETV
vector 155  scenario.node[7].appl  relativeSpeed  ETV
vector 156  scenario.node[7].appl  nodeId  ETV
vector 160  scenario.node[7].appl  acceleration  ETV
vector 161  scenario.node[7].appl  controllerAcceleration  ETV
vector 157  scenario.node[7].appl  speed  ETV
vector 158  scenario.node[7].appl  posx  ETV
vector 159  scenario.node[7].appl  posy  ETV
vector 102  scenario.node[4].prot  frontDelay  ETV
vector 100  scenario.node[4].prot  frontDelayId  ETV
vector 35  scenario.node[1].prot  leaderDelay  ETV
vector 33  scenario.node[1].prot  leaderDelayId  ETV
vector 36  scenario.node[1].prot  frontDelay  ETV
vector 34  scenario.node[1].prot  frontDelayId  ETV
vector 57  scenario.node[2].prot  leaderDelay  ETV
vector 55  scenario.node[2].prot  leaderDelayId  ETV
vector 79  scenario.node[3].prot  leaderDelay  ETV
vector 77  scenario.node[3].prot  leaderDelayId  ETV
vector 101  scenario.node[4].prot  leaderDelay  ETV
vector 99  scenario.node[4].prot  leaderDelayId  ETV
vector 123  scenario.node[5].prot  leaderDelay  ETV
vector 121  scenario.node[5].prot  leaderDelayId  ETV
vector 145  scenario.node[6].prot  leaderDelay  ETV
vector 143  scenario.node[6].prot  leaderDelayId  ETV
vector 167  scenario.node[7].prot  leaderDelay  ETV
vector 165  scenario.node[7].prot  leaderDelayId  ETV
vector 80  scenario.node[3].prot  frontDelay  ETV
vector 78  scenario.node[3].prot  frontDelayId  ETV
vector 146  scenario.node[6].prot  frontDelay  ETV
vector 144  scenario.node[6].prot  frontDelayId  ETV
vector 58  scenario.node[2].prot  frontDelay  ETV
vector 56  scenario.node[2].prot  frontDelayId  ETV
vector 124  scenario.node[5].prot  frontDelay  ETV
vector 122  scenario.node[5].prot  frontDelayId  ETV
vector 168  scenario.node[7].prot  frontDelay  ETV
vector 166  scenario.node[7].prot  frontDelayId  ETV
vector 8  scenario.node[0].prot  nodeId  ETV
vector 9  scenario.node[0].prot  busyTime  ETV
vector 10  scenario.node[0].prot  collisions  ETV
vector 30  scenario.node[1].prot  nodeId  ETV
vector 31  scenario.node[1].prot  busyTime  ETV
vector 32  scenario.node[1].prot  collisions  ETV
vector 52  scenario.node[2].prot  nodeId  ETV
vector 53  scenario.node[2].prot  busyTime  ETV
vector 54  scenario.node[2].prot  collisions  ETV
vector 74  scenario.node[3].prot  nodeId  ETV
vector 75  scenario.node[3].prot  busyTime  ETV
vector 76  scenario.node[3].prot  collisions  ETV
vector 96  scenario.node[4].prot  nodeId  ETV
vector 97  scenario.node[4].prot  busyTime  ETV
vector 98  scenario.node[4].prot  collisions  ETV
vector 118  scenario.node[5].prot  nodeId  ETV
vector 119  scenario.node[5].prot  busyTime  ETV
vector 120  scenario.node[5].prot  collisions  ETV
vector 140  scenario.node[6].prot  nodeId  ETV
vector 141  scenario.node[6].prot  busyTime  ETV
vector 142  scenario.node[6].prot  collisions  ETV
vector 162  scenario.node[7].prot  nodeId  ETV
vector 163  scenario.node[7].prot  busyTime  ETV
vector 164  scenario.node[7].prot  collisions  ETV
7	11072 13860 232 328174 1.11 59.91 589 -1.5 1.5 -14.445974034379 993.24092368185
6	24932 18594 232 328174 1.11 59.91 589 -1.4722746794938 1.4513434175793 -12.50726914995 675.29835222675
5	43526 12081 232 328174 1.11 59.91 589 36.55 36.55 21527.95 786846.5725
4	55607 17922 232 328174 1.11 59.91 589 112.05297775242 1749.7024432948 549106.7405879 643705456.27678
3	73529 17905 232 328174 1.11 59.91 589 26.487965859734 29.742492528104 16403.83880962 457295.15275867
1	91434 9725 232 328174 1.11 59.91 589 0 0 0 0
0	101159 10314 232 328174 1.11 59.91 589 -1 -1 -589 589
2	111473 9725 232 328174 1.11 59.91 589 0 0 0 0
10	121198 859 5234 328728 2 60 59 0 0 0 0
9	122057 1155 5234 328728 2 60 59 0.023625 0.02625 1.546125 0.040523765625
8	123212 800 5234 328728 2 60 59 0 0 0 0
29	124012 19093 233 328175 1.11 59.91 589 -1.5034793944864 1.5024511423159 -15.505717511826 989.15336802812
28	143105 19173 233 328175 1.11 59.91 589 -1.4807765622834 1.4557932513856 -12.221053914726 676.42621592196
27	162278 12670 233 328175 1.11 59.91 589 36.55 36.55 21527.95 786846.5725
26	174948 18501 233 328175 1.11 59.91 589 103.05297775269 1740.7670202143 543806.37353823 633870612.32772
25	193449 18484 233 328175 1.11 59.91 589 26.48728580314 29.749129636533 16404.495599872 457332.59670274
23	211933 20109 233 328175 1.11 59.91 589 -0.064317867355772 0.062036137231836 -0.53171756095789 1.2272975683846
22	232042 18498 233 328175 1.11 59.91 589 4.9162243514724 5.0934695529853 2944.3801854773 14720.03609609
24	250540 10314 233 328175 1.11 59.91 589 1 1 589 589
36	260854 23701 964 328350 1.241822900623 59.941818947307 588 0.099998658966 0.100011676141 58.799994707141 5.8799989505336
35	284555 23701 964 328350 1.241822900623 59.941818947307 588 0.099998658966 0.100011676141 58.799994707141 5.8799989505336
34	308256 16119 964 328350 1.241822900623 59.941818947307 588 1 1 588 588
33	324375 16119 964 328350 1.241822900623 59.941818947307 588 1 1 588 588
32	340494 859 5235 328729 2 60 59 0 0 0 0
31	341353 1214 5235 328729 2 60 59 0.023625 0.02625 1.546125 0.040523765625
30	342567 859 5235 328729 2 60 59 1 1 59 59
51	343426 19074 234 328176 1.11 59.91 589 -1.5169291874388 1.5151528893525 -15.601279913845 999.48201824207
50	362500 19177 234 328176 1.11 59.91 589 -1.474469214601 1.4486483627909 -12.050533338779 671.79687464759
49	381677 12670 234 328176 1.11 59.91 589 36.55 36.55 21527.95 786846.5725
48	394347 18477 234 328176 1.11 59.91 589 94.052977752686 1731.7886434082 538505.66699517 624130838.82476
47	412824 18501 234 328176 1.11 59.91 589 26.489807071192 29.742477783569 16404.718138142 457341.7834685
45	431325 20335 234 328176 1.11 59.91 589 -0.018683341755075 0.016164858544286 -0.10032773092064 0.063853353727997
44	451660 18472 234 328176 1.11 59.91 589 4.9677844757052 5.0430601385272 2944.7109938269 14722.291027653
46	470132 10314 234 328176 1.11 59.91 589 2 2 1178 2356
58	480446 23701 1176 328562 1.28193217081 59.981928218541 588 0.099998658959 0.100011676125 58.799994708188 5.879998950743
57	504147 23690 970 328356 1.241822930644 59.941818977254 588 0.099998658967 0.100011676133 58.799994707067 5.8799989505188
56	527837 16125 1176 328562 1.28193217081 59.981928218541 588 2 2 1176 2352
55	543962 16105 970 328356 1.241822930644 59.941818977254 588 2 2 1176 2352
54	560067 859 5236 328730 2 60 59 0 0 0 0
53	560926 1214 5236 328730 2 60 59 0.023625 0.02625 1.546125 0.040523765625
52	562140 859 5236 328730 2 60 59 2 2 118 236
73	562999 19073 235 328177 1.11 59.91 589 -1.4985212089264 1.4980940713731 -15.551135036929 975.17533147705
72	582072 19202 235 328177 1.11 59.91 589 -1.4637937971386 1.4376572545228 -11.863347875749 661.19219236773
71	601274 12670 235 328177 1.11 59.91 589 36.55 36.55 21527.95 786846.5725
70	613944 18489 235 328177 1.11 59.91 589 85.052977752686 1722.8007971503 533204.94324605 614486737.16507
69	632433 18496 235 328177 1.11 59.91 589 26.49929006903 29.732223328141 16404.846481321 457342.21554782
67	650929 20502 235 328177 1.11 59.91 589 -0.015548587425442 0.013757099034954 -0.0078378452775993 0.03231085618516
66	671431 18483 235 328177 1.11 59.91 589 4.9738525305578 5.0387417848268 2944.7263159814 14722.377150082
68	689914 10314 235 328177 1.11 59.91 589 3 3 1767 5301
80	700228 23698 1040 328426 1.262749960665 59.962759007231 588 0.099998658965 0.100011675803 58.800007707023 5.8800015506442
79	723926 23695 976 328362 1.241822960664 59.941819007233 588 0.099998658964 0.100011676128 58.799994707026 5.8799989505106
78	747621 16109 1040 328426 1.262749960665 59.962759007231 588 3 3 1764 5292
77	763730 16108 976 328362 1.241822960664 59.941819007233 588 3 3 1764 5292
76	779838 859 5237 328731 2 60 59 0 0 0 0
75	780697 1214 5237 328731 2 60 59 0.023625 0.02625 1.546125 0.040523765625
74	781911 859 5237 328731 2 60 59 3 3 177 531
95	782770 19301 236 328178 1.11 59.91 589 -1.4920639078548 1.492297991817 -6.887453977617 544.7968406978
94	802071 19385 236 328178 1.11 59.91 589 -1.4606979511044 1.4336101310143 -4.5191776981088 373.75812642918
93	821456 12670 236 328178 1.11 59.91 589 36.55 36.55 21527.95 786846.5725
92	834126 18495 236 328178 1.11 59.91 589 76.052977752686 1713.6102211849 527711.28637468 604492127.48991
91	852621 18491 236 328178 1.11 59.91 589 26.481743705255 29.729614576829 16403.195722262 457084.44805843
89	871112 19800 236 328178 1.11 59.91 589 -0.86491903341039 1.0251661255398 1.7693925376506 82.638824120288
88	890912 18477 236 328178 1.11 59.91 589 4.5364167176635 7.1058696860764 3137.6238561968 16903.313807609
90	909389 10314 236 328178 1.11 59.91 589 4 4 2356 9424
102	919703 24292 904 328290 1.240525810561 59.94053485836 588 0.099998658953 0.10001167575 58.800007708256 5.8800015508908
101	943995 24307 982 328368 1.241822990685 59.941819037816 588 0.099998658966 0.100011676099 58.799994707588 5.879998950623
100	968302 16706 904 328290 1.240525810561 59.94053485836 588 4 4 2352 9408
99	985008 16121 982 328368 1.241822990685 59.941819037816 588 4 4 2352 9408
98	1001129 859 5238 328732 2 60 59 0 0 0 0
97	1001988 1214 5238 328732 2 60 59 0.023625 0.02625 1.546125 0.040523765625
96	1003202 859 5238 328732 2 60 59 4 4 236 944
117	1004061 19712 237 328179 1.11 59.91 589 -1.4980277570429 1.4988827604699 -11.162977095286 724.86458536399
116	1023773 19888 237 328179 1.11 59.91 589 -1.453940271638 1.4285447656441 -8.489416333612 486.72888995937
115	1043661 13259 237 328179 1.11 59.91 589 36.55 36.55 21527.95 786846.5725
114	1056920 19082 237 328179 1.11 59.91 589 67.052977752686 1704.5803323586 522417.13232911 595039645.8506
113	1076002 19091 237 328179 1.11 59.91 589 26.503908449968 29.721801247807 16402.758278961 457122.94440862
111	1095093 20425 237 328179 1.11 59.91 589 -0.45340053637802 0.5230985158793 0.48263507792782 24.745294661615
110	1115518 19069 237 328179 1.11 59.91 589 4.1426814683423 5.4708801690388 2938.1452967005 14686.412886469
112	1134587 10903 237 328179 1.11 59.91 589 5 5 2945 14725
124	1145490 24278 1242 328622 1.287402260872 59.987398309214 588 0.099998658956 0.100011675808 58.800007708799 5.8800015509994
123	1169768 24280 988 328374 1.241823020706 59.941819067976 588 0.099998658963 0.100011676138 58.799994707727 5.8799989506508
122	1194048 16697 1242 328622 1.287402260872 59.987398309214 588 5 5 2940 14700
121	1210745 16708 988 328374 1.241823020706 59.941819067976 588 5 5 2940 14700
120	1227453 918 5239 328733 2 60 59 0 0 0 0
119	1228371 1273 5239 328733 2 60 59 0.023625 0.02625 1.546125 0.040523765625
118	1229644 918 5239 328733 2 60 59 5 5 295 1475
139	1230562 19661 238 328180 1.11 59.91 589 -1.488961769576 1.4892820935974 -13.224880364304 833.25069914021
138	1250223 19794 238 328180 1.11 59.91 589 -1.4484613577004 1.423468459711 -10.240403577227 565.29337559166
137	1270017 13259 238 328180 1.11 59.91 589 36.55 36.55 21527.95 786846.5725
136	1283276 19096 238 328180 1.11 59.91 589 58.052977752686 1695.5518726443 517123.48078778 585685365.32077
135	1302372 19085 238 328180 1.11 59.91 589 26.512860843188 29.713351898307 16402.412954824 457149.82867495
133	1321457 20527 238 328180 1.11 59.91 589 -0.25880771127137 0.24170948958032 0.43021830040438 5.6465892290901
132	1341984 19067 238 328180 1.11 59.91 589 4.4744401263073 5.2606141156136 2937.6446348427 14663.638163883
134	1361051 10903 238 328180 1.11 59.91 589 6 6 3534 21204
146	1371954 24304 1106 328486 1.266712050727 59.966708098097 588 0.099998658961 0.100011676154 58.799994707827 5.8799989506708
145	1396258 24289 994 328380 1.241823050727 59.941819098109 588 0.099998658961 0.100011676154 58.799994707839 5.8799989506732
144	1420547 16720 1106 328486 1.266712050727 59.966708098097 588 6 6 3528 21168
143	1437267 16713 994 328380 1.241823050727 59.941819098109 588 6 6 3528 21168
142	1453980 918 5240 328734 2 60 59 0 0 0 0
141	1454898 1273 5240 328734 2 60 59 0.023625 0.02625 1.546125 0.040523765625
140	1456171 918 5240 328734 2 60 59 6 6 354 2124
161	1457089 19656 239 328181 1.11 59.91 589 -1.496353420782 1.4966188714923 -14.315424411819 916.48297721156
160	1476745 19782 239 328181 1.11 59.91 589 -1.451779337739 1.4279262018306 -11.058953013268 616.34496304006
159	1496527 13259 239 328181 1.11 59.91 589 36.55 36.55 21527.95 786846.5725
158	1509786 19083 239 328181 1.11 59.91 589 49.052977752686 1686.5070108632 511831.3151573 576432244.57904
157	1528869 19090 239 328181 1.11 59.91 589 26.455777933332 29.717729568461 16401.936066644 457153.83629258
155	1547959 20644 239 328181 1.11 59.91 589 -0.16157403171188 0.13584767354809 0.57929221545137 1.7057966636302
154	1568603 19064 239 328181 1.11 59.91 589 4.6668098256625 5.1731858865019 2936.1560927182 14643.193053043
156	1587667 10903 239 328181 1.11 59.91 589 7 7 4123 28861
168	1598570 24292 1308 328694 1.289466320914 59.989462369561 588 0.099998658955 0.100011676107 58.799994709104 5.8799989509261
167	1622862 24297 1000 328386 1.241823080747 59.941819128288 588 0.099998658962 0.100011676161 58.799994707998 5.879998950705
166	1647159 16705 1308 328694 1.289466320914 59.989462369561 588 7 7 4116 28812
165	1663864 16703 1000 328386 1.241823080747 59.941819128288 588 7 7 4116 28812
164	1680567 918 5241 328735 2 60 59 0 0 0 0
163	1681485 1273 5241 328735 2 60 59 0.023625 0.02625 1.546125 0.040523765625
162	1682758 918 5241 328735 2 60 59 7 7 413 2891
