file 891253 1512144180                                          
version 2
run SinusoidalAccInjectionAttack-253-20171201-17:02:44-34700
attr CACCSpacing 20
attr attackAcc 30
attr attackPos 7
attr attackSpeed 150
attr attackStart 30
attr attacker 4
attr beaconInterval 0.1
attr configname SinusoidalAccInjectionAttack
attr controller 2
attr datetime 20171201-17:02:44
attr experiment SinusoidalAccInjectionAttack
attr fakeAcc "(4 == 4)"
attr fakePos "(4 == 2)"
attr fakeSpeed "(4 == 3)"
attr inifile omnetpp_253.ini
attr iterationvars "$attacker=4, $attackSpeed=150, $attackPos=7, $attackAcc=30, $leaderSpeed=50, $controller=2, $CACCSpacing=20, $sController=\"PLOEG\", $attackStart=30, $0=2, $1=0.5, $nCars=8, $platoonSize=8, $nLanes=1, $beaconInterval=0.1, $priority=2, $packetSize=200, $ploegH=0.5, $leaderHeadway=1.2, $fakeSpeed=(4 == 3), $fakeAcc=(4 == 4), $fakePos=(4 == 2)"
attr iterationvarsf attacker=4,attackSpeed=150,attackPos=7,attackAcc=30,leaderSpeed=50,controller=2,CACCSpacing=20,sController=PLOEG,attackStart=30,2,0.5,nCars=8,platoonSize=8,nLanes=1,beaconInterval=0.1,priority=2,packetSize=200,ploegH=0.5,leaderHeadway=1.2,fakeSpeed=(4_==_3),fakeAcc=(4_==_4),fakePos=(4_==_2)-
attr leaderHeadway 1.2
attr leaderSpeed 50
attr measurement "$attacker=4, $attackSpeed=150, $attackPos=7, $attackAcc=30, $leaderSpeed=50, $controller=2, $CACCSpacing=20, $sController=\"PLOEG\", $attackStart=30, $0=2, $1=0.5, $nCars=8, $platoonSize=8, $nLanes=1, $beaconInterval=0.1, $priority=2, $packetSize=200, $ploegH=0.5, $leaderHeadway=1.2, $fakeSpeed=(4 == 3), $fakeAcc=(4 == 4), $fakePos=(4 == 2)"
attr nCars 8
attr nLanes 1
attr network scenario
attr packetSize 200
attr platoonSize 8
attr ploegH 0.5
attr priority 2
attr processid 34700
attr repetition 3
attr replication #3
attr resultdir results
attr runnumber 253
attr sController "\"PLOEG\""
attr seedset 3
param **.coreDebug false
param **.debug false
param **.headway 0.1s
param **.numberOfCars 8
param **.numberOfCarsPerPlatoon 8
param **.numberOfLanes 1
param **.numericController 2
param **.traffic.nCars 8
param **.traffic.nLanes 1
param **.traffic.platoonInsertDistance 2m
param **.traffic.platoonInsertHeadway 0.5s
param **.traffic.platoonInsertSpeed 50kmph
param **.traffic.platoonInsertTime "1 s"
param **.traffic.platoonLeaderHeadway 1.2s
param **.traffic.platoonSize 8
param **.traffic.platooningVType "\"vtypeauto\""
param **.traffic_type "\"PlatoonsTrafficManager\""
param *.**.nic.mac1609_4.bitrate 6Mbps
param *.**.nic.mac1609_4.txPower 100mW
param *.**.nic.mac1609_4.useServiceChannel false
param *.**.nic.phy80211p.analogueModels "xmldoc(\"config.xml\")"
param *.**.nic.phy80211p.decider "xmldoc(\"config.xml\")"
param *.**.nic.phy80211p.maxTXPower 100mW
param *.**.nic.phy80211p.sensitivity -94dBm
param *.**.nic.phy80211p.thermalNoise -95dBm
param *.**.nic.phy80211p.usePropagationDelay true
param *.**.nic.phy80211p.useThermalNoise true
param *.annotations.draw false
param *.connectionManager.alpha 2.0
param *.connectionManager.carrierFrequency "5.890e9 Hz"
param *.connectionManager.pMax 100mW
param *.connectionManager.sat -94dBm
param *.connectionManager.sendDirect true
param *.manager.autoShutdown true
param *.manager.commandLine "\"sumo --remote-port $port --seed $seed --configuration-file $configFile\""
param *.manager.configFile "\"./sumocfg/freeway.sumo.cfg\""
param *.manager.host "\"localhost\""
param *.manager.margin 25
param *.manager.moduleDisplayString "\"\""
param *.manager.moduleName "\"node\""
param *.manager.moduleType "\"Car\""
param *.manager.updateInterval 0.01s
param *.node[*].appl.attackStart 30s
param *.node[*].appl.attackerType 4
param *.node[*].appl.simulationDuration "60 s"
param *.node[*].appl_type "\"SimplePlatooningApp\""
param *.node[*].helper.nCars 8
param *.node[*].helper.nLanes 1
param *.node[*].helper.platoonSize 8
param *.node[*].helper_type "\"PositionHelper\""
param *.node[*].mobility.x 0
param *.node[*].mobility.y 0
param *.node[*].mobility.z 1.895
param *.node[*].prot.attackStart 30s
param *.node[*].prot.attackerType 4
param *.node[*].prot.attackingNode 3
param *.node[*].prot.beaconingInterval 0.1s
param *.node[*].prot.fakeAcc "(4 == 4)"
param *.node[*].prot.fakePos "(4 == 2)"
param *.node[*].prot.fakeSpeed "(4 == 3)"
param *.node[*].prot.maliciousAcc "30 mpss"
param *.node[*].prot.maliciousSpeed 150kmph
param *.node[*].prot.packetSize 200
param *.node[*].prot.priority 2
param *.node[*].prot.shiftX "7 m"
param *.node[*].prot.useControllerAcceleration true
param *.node[*].protocol_type "\"SimplePlatooningBeaconing\""
param *.node[*].scenario.accHeadway 0.1s
param *.node[*].scenario.caccC1 0.5
param *.node[*].scenario.caccOmegaN "0.2 Hz"
param *.node[*].scenario.caccSpacing 20m
param *.node[*].scenario.caccXi 1
param *.node[*].scenario.controller "\"PLOEG\""
param *.node[*].scenario.engineTau "0.5 s"
param *.node[*].scenario.leaderHeadway 1.2s
param *.node[*].scenario.leaderSpeed 50kmph
param *.node[*].scenario.ploegH 0.5s
param *.node[*].scenario.ploegKd 0.7
param *.node[*].scenario.ploegKp 0.2
param *.node[*].scenario.useRealisticEngine false
param *.node[*].scenario_type "\"SinusoidalScenario\""
param *.node[*].unicast.packetLossRate 0
param *.obstacles.debug false
param *.playgroundSizeX 65000m
param *.playgroundSizeY 25000m
param *.playgroundSizeZ 50m
param *.world.use2D false
param *.world.useTorus false

vector 0  scenario.node[0].appl  distance  ETV
vector 1  scenario.node[0].appl  relativeSpeed  ETV
vector 2  scenario.node[0].appl  nodeId  ETV
vector 6  scenario.node[0].appl  acceleration  ETV
vector 7  scenario.node[0].appl  controllerAcceleration  ETV
vector 3  scenario.node[0].appl  speed  ETV
vector 4  scenario.node[0].appl  posx  ETV
vector 5  scenario.node[0].appl  posy  ETV
vector 22  scenario.node[1].appl  distance  ETV
vector 23  scenario.node[1].appl  relativeSpeed  ETV
vector 24  scenario.node[1].appl  nodeId  ETV
vector 28  scenario.node[1].appl  acceleration  ETV
vector 29  scenario.node[1].appl  controllerAcceleration  ETV
vector 25  scenario.node[1].appl  speed  ETV
vector 26  scenario.node[1].appl  posx  ETV
vector 27  scenario.node[1].appl  posy  ETV
vector 44  scenario.node[2].appl  distance  ETV
vector 45  scenario.node[2].appl  relativeSpeed  ETV
vector 46  scenario.node[2].appl  nodeId  ETV
vector 50  scenario.node[2].appl  acceleration  ETV
vector 51  scenario.node[2].appl  controllerAcceleration  ETV
vector 47  scenario.node[2].appl  speed  ETV
vector 48  scenario.node[2].appl  posx  ETV
vector 49  scenario.node[2].appl  posy  ETV
vector 66  scenario.node[3].appl  distance  ETV
vector 67  scenario.node[3].appl  relativeSpeed  ETV
vector 68  scenario.node[3].appl  nodeId  ETV
vector 72  scenario.node[3].appl  acceleration  ETV
vector 73  scenario.node[3].appl  controllerAcceleration  ETV
vector 69  scenario.node[3].appl  speed  ETV
vector 70  scenario.node[3].appl  posx  ETV
vector 71  scenario.node[3].appl  posy  ETV
vector 88  scenario.node[4].appl  distance  ETV
vector 89  scenario.node[4].appl  relativeSpeed  ETV
vector 90  scenario.node[4].appl  nodeId  ETV
vector 94  scenario.node[4].appl  acceleration  ETV
vector 95  scenario.node[4].appl  controllerAcceleration  ETV
vector 91  scenario.node[4].appl  speed  ETV
vector 92  scenario.node[4].appl  posx  ETV
vector 93  scenario.node[4].appl  posy  ETV
vector 110  scenario.node[5].appl  distance  ETV
vector 111  scenario.node[5].appl  relativeSpeed  ETV
vector 112  scenario.node[5].appl  nodeId  ETV
vector 116  scenario.node[5].appl  acceleration  ETV
vector 117  scenario.node[5].appl  controllerAcceleration  ETV
vector 113  scenario.node[5].appl  speed  ETV
vector 114  scenario.node[5].appl  posx  ETV
vector 115  scenario.node[5].appl  posy  ETV
vector 132  scenario.node[6].appl  distance  ETV
vector 133  scenario.node[6].appl  relativeSpeed  ETV
vector 134  scenario.node[6].appl  nodeId  ETV
vector 138  scenario.node[6].appl  acceleration  ETV
vector 139  scenario.node[6].appl  controllerAcceleration  ETV
vector 135  scenario.node[6].appl  speed  ETV
vector 136  scenario.node[6].appl  posx  ETV
vector 137  scenario.node[6].appl  posy  ETV
vector 154  scenario.node[7].appl  distance  ETV
vector 155  scenario.node[7].appl  relativeSpeed  ETV
vector 156  scenario.node[7].appl  nodeId  ETV
vector 160  scenario.node[7].appl  acceleration  ETV
vector 161  scenario.node[7].appl  controllerAcceleration  ETV
vector 157  scenario.node[7].appl  speed  ETV
vector 158  scenario.node[7].appl  posx  ETV
vector 159  scenario.node[7].appl  posy  ETV
vector 35  scenario.node[1].prot  leaderDelay  ETV
vector 33  scenario.node[1].prot  leaderDelayId  ETV
vector 36  scenario.node[1].prot  frontDelay  ETV
vector 34  scenario.node[1].prot  frontDelayId  ETV
vector 57  scenario.node[2].prot  leaderDelay  ETV
vector 55  scenario.node[2].prot  leaderDelayId  ETV
vector 79  scenario.node[3].prot  leaderDelay  ETV
vector 77  scenario.node[3].prot  leaderDelayId  ETV
vector 101  scenario.node[4].prot  leaderDelay  ETV
vector 99  scenario.node[4].prot  leaderDelayId  ETV
vector 123  scenario.node[5].prot  leaderDelay  ETV
vector 121  scenario.node[5].prot  leaderDelayId  ETV
vector 145  scenario.node[6].prot  leaderDelay  ETV
vector 143  scenario.node[6].prot  leaderDelayId  ETV
vector 167  scenario.node[7].prot  leaderDelay  ETV
vector 165  scenario.node[7].prot  leaderDelayId  ETV
vector 168  scenario.node[7].prot  frontDelay  ETV
vector 166  scenario.node[7].prot  frontDelayId  ETV
vector 58  scenario.node[2].prot  frontDelay  ETV
vector 56  scenario.node[2].prot  frontDelayId  ETV
vector 124  scenario.node[5].prot  frontDelay  ETV
vector 122  scenario.node[5].prot  frontDelayId  ETV
vector 80  scenario.node[3].prot  frontDelay  ETV
vector 78  scenario.node[3].prot  frontDelayId  ETV
vector 146  scenario.node[6].prot  frontDelay  ETV
vector 144  scenario.node[6].prot  frontDelayId  ETV
vector 102  scenario.node[4].prot  frontDelay  ETV
vector 100  scenario.node[4].prot  frontDelayId  ETV
vector 8  scenario.node[0].prot  nodeId  ETV
vector 9  scenario.node[0].prot  busyTime  ETV
vector 10  scenario.node[0].prot  collisions  ETV
vector 30  scenario.node[1].prot  nodeId  ETV
vector 31  scenario.node[1].prot  busyTime  ETV
vector 32  scenario.node[1].prot  collisions  ETV
vector 52  scenario.node[2].prot  nodeId  ETV
vector 53  scenario.node[2].prot  busyTime  ETV
vector 54  scenario.node[2].prot  collisions  ETV
vector 74  scenario.node[3].prot  nodeId  ETV
vector 75  scenario.node[3].prot  busyTime  ETV
vector 76  scenario.node[3].prot  collisions  ETV
vector 96  scenario.node[4].prot  nodeId  ETV
vector 97  scenario.node[4].prot  busyTime  ETV
vector 98  scenario.node[4].prot  collisions  ETV
vector 118  scenario.node[5].prot  nodeId  ETV
vector 119  scenario.node[5].prot  busyTime  ETV
vector 120  scenario.node[5].prot  collisions  ETV
vector 140  scenario.node[6].prot  nodeId  ETV
vector 141  scenario.node[6].prot  busyTime  ETV
vector 142  scenario.node[6].prot  collisions  ETV
vector 162  scenario.node[7].prot  nodeId  ETV
vector 163  scenario.node[7].prot  busyTime  ETV
vector 164  scenario.node[7].prot  collisions  ETV
7	11089 7505 232 174783 1.11 32.41 314 -1.5 1.5 15.013995601398 492.20208521524
6	18594 9834 232 174783 1.11 32.41 314 -1.472274679513 1.4513407705126 12.498142468325 335.41954670747
5	28428 6306 232 174783 1.11 32.41 314 36.55 36.55 11476.7 419473.385
4	34734 9413 232 174783 1.11 32.41 314 131.34595832811 569.74731144929 110470.27901768 43929446.369777
3	44147 9414 232 174783 1.11 32.41 314 12.59914837223 15.853603639796 4398.3358461312 61839.639665133
1	53561 5050 232 174783 1.11 32.41 314 0 0 0 0
0	58611 5364 232 174783 1.11 32.41 314 -1 -1 -314 314
2	63975 5050 232 174783 1.11 32.41 314 0 0 0 0
10	69025 438 5056 172366 2 32 31 0 0 0 0
9	69463 805 5056 172366 2 32 31 0.022764155416 0.026259343667 0.810266091865 0.02119018457197
8	70268 407 5056 172366 2 32 31 0 0 0 0
29	70675 10122 233 174784 1.11 32.41 314 -1.5368749871319 1.5234409395208 12.726740518366 369.65287954604
28	80797 10203 233 174784 1.11 32.41 314 -1.4452178804923 1.3764917382996 6.6053235839753 259.38092122582
27	91000 6620 233 174784 1.11 32.41 314 36.55 36.55 11476.7 419473.385
26	97620 9718 233 174784 1.11 32.41 314 118.40151557922 556.39275016687 106388.50394743 41116580.532986
25	107338 9734 233 174784 1.11 32.41 314 12.778466618302 15.691136952006 4394.023145466 61673.293600049
23	117072 10329 233 174784 1.11 32.41 314 -0.73571924772851 0.72026850008206 4.1877192405515 73.32073443756
22	127401 9731 233 174784 1.11 32.41 314 8.339341851518 9.8806061808822 2825.6888162372 25481.430330597
24	137132 5364 233 174784 1.11 32.41 314 1 1 314 314
36	142496 12446 836 174274 1.269558165806 32.369559214829 312 0.099999003548 0.10001217577 31.200000171651 3.1200000376406
35	154942 12446 836 174274 1.269558165806 32.369559214829 312 0.099999003548 0.10001217577 31.200000171651 3.1200000376406
34	167388 8416 836 174274 1.269558165806 32.369559214829 312 1 1 312 312
33	175804 8416 836 174274 1.269558165806 32.369559214829 312 1 1 312 312
32	184220 438 5057 172367 2 32 31 0 0 0 0
31	184658 835 5057 172367 2 32 31 0.022764198594 0.026259345728 0.810266135434 0.021190186558365
30	185493 438 5057 172367 2 32 31 1 1 31 31
51	185931 10162 234 174785 1.11 32.41 314 -1.5014229381863 1.4352155401104 6.1912936324804 281.02999667791
50	196093 10225 234 174785 1.11 32.41 314 -1.3549667289997 1.2381568826646 0.034801283200991 195.87231320342
49	206318 6620 234 174785 1.11 32.41 314 36.55 36.55 11476.7 419473.385
48	212938 9721 234 174785 1.11 32.41 314 105.45706520081 543.40429839924 102308.03599419 38410708.543114
47	222659 9726 234 174785 1.11 32.41 314 12.922827487232 15.563382178227 4393.3532231814 61619.132742733
45	232385 10344 234 174785 1.11 32.41 314 -0.68818670774149 0.64328775797859 0.60386904881232 53.50993195291
44	242729 9724 234 174785 1.11 32.41 314 8.4281508991325 9.7977389096579 2824.4545547906 25447.39163186
46	252453 5364 234 174785 1.11 32.41 314 2 2 628 1256
58	257817 12433 1046 174478 1.29918972712 32.399190751359 312 0.099999001579 0.100012168812 31.200000146867 3.1200000326832
57	270250 12438 842 174280 1.269558208984 32.369559258045 312 0.099999003765 0.100012175587 31.200000171689 3.1200000376482
56	282688 8402 1046 174478 1.29918972712 32.399190751359 312 2 2 624 1248
55	291090 8410 842 174280 1.269558208984 32.369559258045 312 2 2 624 1248
54	299500 438 5058 172368 2 32 31 0 0 0 0
53	299938 834 5058 172368 2 32 31 0.022764241772 0.026259346721 0.810266177886 0.021190188486119
52	300772 438 5058 172368 2 32 31 2 2 62 124
73	301210 10200 235 174786 1.11 32.41 314 -1.4242142672866 1.3073024543927 -0.83596117182156 216.78079603193
72	311410 10243 235 174786 1.11 32.41 314 -1.2569557598567 1.1039275833539 -5.091031430503 152.08331284454
71	321653 6620 235 174786 1.11 32.41 314 36.55 36.55 11476.7 419473.385
70	328273 9724 235 174786 1.11 32.41 314 92.512622451782 530.69194796886 98226.836510195 35809889.706044
69	337997 9732 235 174786 1.11 32.41 314 13.029522669938 15.471534107921 4395.4976336924 61653.386226219
67	347729 10305 235 174786 1.11 32.41 314 -0.64807213015603 0.58466677410853 -2.1447585238265 42.657509701276
66	358034 9725 235 174786 1.11 32.41 314 8.4793133390725 9.7513814133884 2825.242372207 25455.188585864
68	367759 5364 235 174786 1.11 32.41 314 3 3 942 2826
80	373123 12444 1180 174613 1.30021094301 32.400211907778 312 0.099998997584 0.100012170246 31.200000087396 3.1200000207885
79	385567 12448 848 174286 1.269558252162 32.369559300367 312 0.099999003917 0.100012175491 31.200000170833 3.120000037477
78	398015 8419 1180 174613 1.30021094301 32.400211907778 312 3 3 936 2808
77	406434 8412 848 174286 1.269558252162 32.369559300367 312 3 3 936 2808
76	414846 438 5059 172369 2 32 31 0 0 0 0
75	415284 835 5059 172369 2 32 31 0.022763198594 0.026259346883 0.810265136045 0.021190141063063
74	416119 438 5059 172369 2 32 31 3 3 93 279
117	416557 10597 237 174788 1.11 32.41 314 -1.198722443616 23.02458566008 379.14150751152 7354.0184745366
116	427154 10584 237 174788 1.11 32.41 314 -1.050775492412 2.5 57.303465240852 208.2403508344
115	437738 6934 237 174788 1.11 32.41 314 36.55 36.55 11476.7 419473.385
114	444672 10027 237 174788 1.11 32.41 314 66.623736953735 511.82031914455 90103.607011571 30964966.759412
113	454699 10048 237 174788 1.11 32.41 314 13.21703876574 19.507174358073 4467.8426194807 63869.929843368
111	464747 10644 237 174788 1.11 32.41 314 -0.53670776217258 0.59913828598168 16.283925209522 30.52633642596
110	475391 10041 237 174788 1.11 32.41 314 8.5864645128457 10.602010722055 2851.1830481428 25931.075443308
112	485432 5678 237 174788 1.11 32.41 314 5 5 1570 7850
124	491110 12761 1112 174550 1.299602856654 32.39959085709 312 0.099998999711 0.100012176767 31.200000123064 3.1200000279241
123	503871 12765 860 174298 1.269558338518 32.369559364341 312 0.09999900191 0.100012175584 31.200000148451 3.1200000330006
122	516636 8737 1112 174550 1.299602856654 32.39959085709 312 5 5 1560 7800
121	525373 8737 860 174298 1.269558338518 32.369559364341 312 5 5 1560 7800
120	534110 469 5061 172371 2 32 31 0 0 0 0
119	534579 867 5061 172371 2 32 31 0.022763112238 0.026259360689 0.810265064955 0.021190137933277
118	535446 469 5061 172371 2 32 31 5 5 155 775
139	535915 10614 238 174789 1.11 32.41 314 -1.0965654815326 20.90700145735 257.21844435668 4040.4531131883
138	546529 10573 238 174789 1.11 32.41 314 -0.96056722567415 2.5 49.502109853078 172.03966078397
137	557102 6934 238 174789 1.11 32.41 314 36.55 36.55 11476.7 419473.385
136	564036 10043 238 174789 1.11 32.41 314 53.679290390015 497.12242423906 85999.074666138 28657762.544901
135	574079 10026 238 174789 1.11 32.41 314 13.29537990411 18.728110873921 4450.034007922 63273.493929314
133	584105 10690 238 174789 1.11 32.41 314 -0.49035862829927 0.75406348415281 17.235576906208 28.651640118772
132	594795 10044 238 174789 1.11 32.41 314 8.6281622419358 10.682313635803 2848.1761732014 25872.147204557
134	604839 5678 238 174789 1.11 32.41 314 6 6 1884 11304
146	610517 12756 1249 174688 1.305616072544 32.405617020139 312 0.09999900497 0.100012176375 31.200000070223 3.1200000173528
145	623273 12766 866 174304 1.269558381696 32.369559413238 312 0.09999900217 0.100012175696 31.20000015417 3.1200000341444
144	636039 8736 1249 174688 1.305616072544 32.405617020139 312 6 6 1872 11232
143	644775 8728 866 174304 1.269558381696 32.369559413238 312 6 6 1872 11232
142	653503 469 5062 172372 2 32 31 0 0 0 0
141	653972 865 5062 172372 2 32 31 0.02276406906 0.02625935809 0.810266017019 0.021190181244857
140	654837 469 5062 172372 2 32 31 6 6 186 1116
161	655306 10653 239 174790 1.11 32.41 314 -1.0030723099035 16.745020148629 159.02471745192 1846.5644433353
160	665959 10633 239 174790 1.11 32.41 314 -0.88127813691834 2.5 40.822991751957 138.45580537887
159	676592 6934 239 174790 1.11 32.41 314 36.55 36.55 11476.7 419473.385
158	683526 10046 239 174790 1.11 32.41 314 40.734846687317 482.56517534912 81899.690165609 26462417.310762
157	693572 10040 239 174790 1.11 32.41 314 13.364925628847 17.855185797437 4433.6013496314 62735.747451482
155	703612 10664 239 174790 1.11 32.41 314 -0.44951080086105 0.84792507648362 15.937637192067 25.458946539912
154	714276 10024 239 174790 1.11 32.41 314 8.6652675436965 10.539790388408 2843.0558473634 25770.711463638
156	724300 5678 239 174790 1.11 32.41 314 7 7 2198 15386
168	729978 12756 980 174412 1.29210751123 32.392108558591 312 0.099999003044 0.100012172959 31.200000169989 3.1200000373063
167	742734 12756 872 174310 1.269558424874 32.36955946165 312 0.099999002461 0.100012175802 31.200000159404 3.1200000351912
166	755490 8727 980 174412 1.29210751123 32.392108558591 312 7 7 2184 15288
165	764217 8720 872 174310 1.269558424874 32.36955946165 312 7 7 2184 15288
164	772937 469 5063 172373 2 32 31 0 0 0 0
163	773406 866 5063 172373 2 32 31 0.022764025882 0.026259355257 0.810265969685 0.021190179060816
162	774272 469 5063 172373 2 32 31 7 7 217 1519
88	774741 9735 236 174799 1.11 32.45 315 0 9.7032420663119 2761.4933501969 24690.596479518
89	784476 10343 236 174799 1.11 32.45 315 -6.8804401271235 0.50665504636536 -96.093246582757 534.09124545465
90	794819 5382 236 174799 1.11 32.45 315 4 4 1260 5040
91	800201 9767 236 174799 1.11 32.45 315 13.12895607306 20.231312644055 4504.9926631064 64856.720164214
92	809968 9761 236 174799 1.11 32.45 315 79.568179702759 527.24356513808 94738.371999471 33660173.222045
93	819729 6642 236 174799 1.11 32.45 315 36.55 36.55 11513.25 420809.2875
94	826371 10259 236 174799 1.11 32.45 315 -1.1515794200269 2.5 65.980577211325 253.6224696235
95	836630 10254 236 174799 1.11 32.45 315 -1.3145191977438 24.750684808041 537.7043390403 12178.773199502
96	846884 438 5060 172370 2 32 31 4 4 124 496
97	847322 836 5060 172370 2 32 31 0.022764155416 0.026259362771 0.810266112829 0.021190185672888
98	848158 438 5060 172370 2 32 31 0 0 0 0
99	848596 8416 854 174292 1.26955829534 32.369559315696 312 4 4 1248 4992
100	857012 8731 1312 174745 1.3060291589 32.40605604872 312 4 4 1248 4992
101	865743 12759 854 174292 1.26955829534 32.369559315696 312 0.099999001702 0.100012175501 31.200000142984 3.1200000319072
102	878502 12751 1312 174745 1.3060291589 32.40605604872 312 0.099908109071 0.100090122628 31.199961012448 3.1199927444678
