file 1668413 1512142945                                         
version 2
run SinusoidalAccInjectionAttack-14-20171201-16:41:54-40659
attr CACCSpacing 20
attr attackAcc -30
attr attackPos 7
attr attackSpeed 150
attr attackStart 30
attr attacker 4
attr beaconInterval 0.1
attr configname SinusoidalAccInjectionAttack
attr controller 2
attr datetime 20171201-16:41:54
attr experiment SinusoidalAccInjectionAttack
attr fakeAcc "(4 == 4)"
attr fakePos "(4 == 2)"
attr fakeSpeed "(4 == 3)"
attr inifile omnetpp_14.ini
attr iterationvars "$attacker=4, $attackSpeed=150, $attackPos=7, $attackAcc=-30, $leaderSpeed=50, $controller=2, $CACCSpacing=20, $sController=\"PLOEG\", $attackStart=30, $0=2, $1=0.5, $nCars=8, $platoonSize=8, $nLanes=1, $beaconInterval=0.1, $priority=2, $packetSize=200, $ploegH=0.5, $leaderHeadway=1.2, $fakeSpeed=(4 == 3), $fakeAcc=(4 == 4), $fakePos=(4 == 2)"
attr iterationvarsf attacker=4,attackSpeed=150,attackPos=7,attackAcc=-30,leaderSpeed=50,controller=2,CACCSpacing=20,sController=PLOEG,attackStart=30,2,0.5,nCars=8,platoonSize=8,nLanes=1,beaconInterval=0.1,priority=2,packetSize=200,ploegH=0.5,leaderHeadway=1.2,fakeSpeed=(4_==_3),fakeAcc=(4_==_4),fakePos=(4_==_2)-
attr leaderHeadway 1.2
attr leaderSpeed 50
attr measurement "$attacker=4, $attackSpeed=150, $attackPos=7, $attackAcc=-30, $leaderSpeed=50, $controller=2, $CACCSpacing=20, $sController=\"PLOEG\", $attackStart=30, $0=2, $1=0.5, $nCars=8, $platoonSize=8, $nLanes=1, $beaconInterval=0.1, $priority=2, $packetSize=200, $ploegH=0.5, $leaderHeadway=1.2, $fakeSpeed=(4 == 3), $fakeAcc=(4 == 4), $fakePos=(4 == 2)"
attr nCars 8
attr nLanes 1
attr network scenario
attr packetSize 200
attr platoonSize 8
attr ploegH 0.5
attr priority 2
attr processid 40659
attr repetition 4
attr replication #4
attr resultdir results
attr runnumber 14
attr sController "\"PLOEG\""
attr seedset 4
param **.coreDebug false
param **.debug false
param **.headway 0.1s
param **.numberOfCars 8
param **.numberOfCarsPerPlatoon 8
param **.numberOfLanes 1
param **.numericController 2
param **.traffic.nCars 8
param **.traffic.nLanes 1
param **.traffic.platoonInsertDistance 2m
param **.traffic.platoonInsertHeadway 0.5s
param **.traffic.platoonInsertSpeed 50kmph
param **.traffic.platoonInsertTime "1 s"
param **.traffic.platoonLeaderHeadway 1.2s
param **.traffic.platoonSize 8
param **.traffic.platooningVType "\"vtypeauto\""
param **.traffic_type "\"PlatoonsTrafficManager\""
param *.**.nic.mac1609_4.bitrate 6Mbps
param *.**.nic.mac1609_4.txPower 100mW
param *.**.nic.mac1609_4.useServiceChannel false
param *.**.nic.phy80211p.analogueModels "xmldoc(\"config.xml\")"
param *.**.nic.phy80211p.decider "xmldoc(\"config.xml\")"
param *.**.nic.phy80211p.maxTXPower 100mW
param *.**.nic.phy80211p.sensitivity -94dBm
param *.**.nic.phy80211p.thermalNoise -95dBm
param *.**.nic.phy80211p.usePropagationDelay true
param *.**.nic.phy80211p.useThermalNoise true
param *.annotations.draw false
param *.connectionManager.alpha 2.0
param *.connectionManager.carrierFrequency "5.890e9 Hz"
param *.connectionManager.pMax 100mW
param *.connectionManager.sat -94dBm
param *.connectionManager.sendDirect true
param *.manager.autoShutdown true
param *.manager.commandLine "\"sumo --remote-port $port --seed $seed --configuration-file $configFile\""
param *.manager.configFile "\"./sumocfg/freeway.sumo.cfg\""
param *.manager.host "\"localhost\""
param *.manager.margin 25
param *.manager.moduleDisplayString "\"\""
param *.manager.moduleName "\"node\""
param *.manager.moduleType "\"Car\""
param *.manager.updateInterval 0.01s
param *.node[*].appl.attackStart 30s
param *.node[*].appl.attackerType 4
param *.node[*].appl.simulationDuration "60 s"
param *.node[*].appl_type "\"SimplePlatooningApp\""
param *.node[*].helper.nCars 8
param *.node[*].helper.nLanes 1
param *.node[*].helper.platoonSize 8
param *.node[*].helper_type "\"PositionHelper\""
param *.node[*].mobility.x 0
param *.node[*].mobility.y 0
param *.node[*].mobility.z 1.895
param *.node[*].prot.attackStart 30s
param *.node[*].prot.attackerType 4
param *.node[*].prot.attackingNode 3
param *.node[*].prot.beaconingInterval 0.1s
param *.node[*].prot.fakeAcc "(4 == 4)"
param *.node[*].prot.fakePos "(4 == 2)"
param *.node[*].prot.fakeSpeed "(4 == 3)"
param *.node[*].prot.maliciousAcc "-30 mpss"
param *.node[*].prot.maliciousSpeed 150kmph
param *.node[*].prot.packetSize 200
param *.node[*].prot.priority 2
param *.node[*].prot.shiftX "7 m"
param *.node[*].prot.useControllerAcceleration true
param *.node[*].protocol_type "\"SimplePlatooningBeaconing\""
param *.node[*].scenario.accHeadway 0.1s
param *.node[*].scenario.caccC1 0.5
param *.node[*].scenario.caccOmegaN "0.2 Hz"
param *.node[*].scenario.caccSpacing 20m
param *.node[*].scenario.caccXi 1
param *.node[*].scenario.controller "\"PLOEG\""
param *.node[*].scenario.engineTau "0.5 s"
param *.node[*].scenario.leaderHeadway 1.2s
param *.node[*].scenario.leaderSpeed 50kmph
param *.node[*].scenario.ploegH 0.5s
param *.node[*].scenario.ploegKd 0.7
param *.node[*].scenario.ploegKp 0.2
param *.node[*].scenario.useRealisticEngine false
param *.node[*].scenario_type "\"SinusoidalScenario\""
param *.node[*].unicast.packetLossRate 0
param *.obstacles.debug false
param *.playgroundSizeX 65000m
param *.playgroundSizeY 25000m
param *.playgroundSizeZ 50m
param *.world.use2D false
param *.world.useTorus false

vector 0  scenario.node[0].appl  distance  ETV
vector 1  scenario.node[0].appl  relativeSpeed  ETV
vector 2  scenario.node[0].appl  nodeId  ETV
vector 6  scenario.node[0].appl  acceleration  ETV
vector 7  scenario.node[0].appl  controllerAcceleration  ETV
vector 3  scenario.node[0].appl  speed  ETV
vector 4  scenario.node[0].appl  posx  ETV
vector 5  scenario.node[0].appl  posy  ETV
vector 22  scenario.node[1].appl  distance  ETV
vector 23  scenario.node[1].appl  relativeSpeed  ETV
vector 24  scenario.node[1].appl  nodeId  ETV
vector 28  scenario.node[1].appl  acceleration  ETV
vector 29  scenario.node[1].appl  controllerAcceleration  ETV
vector 25  scenario.node[1].appl  speed  ETV
vector 26  scenario.node[1].appl  posx  ETV
vector 27  scenario.node[1].appl  posy  ETV
vector 44  scenario.node[2].appl  distance  ETV
vector 45  scenario.node[2].appl  relativeSpeed  ETV
vector 46  scenario.node[2].appl  nodeId  ETV
vector 50  scenario.node[2].appl  acceleration  ETV
vector 51  scenario.node[2].appl  controllerAcceleration  ETV
vector 47  scenario.node[2].appl  speed  ETV
vector 48  scenario.node[2].appl  posx  ETV
vector 49  scenario.node[2].appl  posy  ETV
vector 66  scenario.node[3].appl  distance  ETV
vector 67  scenario.node[3].appl  relativeSpeed  ETV
vector 68  scenario.node[3].appl  nodeId  ETV
vector 72  scenario.node[3].appl  acceleration  ETV
vector 73  scenario.node[3].appl  controllerAcceleration  ETV
vector 69  scenario.node[3].appl  speed  ETV
vector 70  scenario.node[3].appl  posx  ETV
vector 71  scenario.node[3].appl  posy  ETV
vector 88  scenario.node[4].appl  distance  ETV
vector 89  scenario.node[4].appl  relativeSpeed  ETV
vector 90  scenario.node[4].appl  nodeId  ETV
vector 94  scenario.node[4].appl  acceleration  ETV
vector 95  scenario.node[4].appl  controllerAcceleration  ETV
vector 91  scenario.node[4].appl  speed  ETV
vector 92  scenario.node[4].appl  posx  ETV
vector 93  scenario.node[4].appl  posy  ETV
vector 110  scenario.node[5].appl  distance  ETV
vector 111  scenario.node[5].appl  relativeSpeed  ETV
vector 112  scenario.node[5].appl  nodeId  ETV
vector 116  scenario.node[5].appl  acceleration  ETV
vector 117  scenario.node[5].appl  controllerAcceleration  ETV
vector 113  scenario.node[5].appl  speed  ETV
vector 114  scenario.node[5].appl  posx  ETV
vector 115  scenario.node[5].appl  posy  ETV
vector 132  scenario.node[6].appl  distance  ETV
vector 133  scenario.node[6].appl  relativeSpeed  ETV
vector 134  scenario.node[6].appl  nodeId  ETV
vector 138  scenario.node[6].appl  acceleration  ETV
vector 139  scenario.node[6].appl  controllerAcceleration  ETV
vector 135  scenario.node[6].appl  speed  ETV
vector 136  scenario.node[6].appl  posx  ETV
vector 137  scenario.node[6].appl  posy  ETV
vector 154  scenario.node[7].appl  distance  ETV
vector 155  scenario.node[7].appl  relativeSpeed  ETV
vector 156  scenario.node[7].appl  nodeId  ETV
vector 160  scenario.node[7].appl  acceleration  ETV
vector 161  scenario.node[7].appl  controllerAcceleration  ETV
vector 157  scenario.node[7].appl  speed  ETV
vector 158  scenario.node[7].appl  posx  ETV
vector 159  scenario.node[7].appl  posy  ETV
vector 102  scenario.node[4].prot  frontDelay  ETV
vector 100  scenario.node[4].prot  frontDelayId  ETV
vector 35  scenario.node[1].prot  leaderDelay  ETV
vector 33  scenario.node[1].prot  leaderDelayId  ETV
vector 36  scenario.node[1].prot  frontDelay  ETV
vector 34  scenario.node[1].prot  frontDelayId  ETV
vector 57  scenario.node[2].prot  leaderDelay  ETV
vector 55  scenario.node[2].prot  leaderDelayId  ETV
vector 79  scenario.node[3].prot  leaderDelay  ETV
vector 77  scenario.node[3].prot  leaderDelayId  ETV
vector 101  scenario.node[4].prot  leaderDelay  ETV
vector 99  scenario.node[4].prot  leaderDelayId  ETV
vector 123  scenario.node[5].prot  leaderDelay  ETV
vector 121  scenario.node[5].prot  leaderDelayId  ETV
vector 145  scenario.node[6].prot  leaderDelay  ETV
vector 143  scenario.node[6].prot  leaderDelayId  ETV
vector 167  scenario.node[7].prot  leaderDelay  ETV
vector 165  scenario.node[7].prot  leaderDelayId  ETV
vector 80  scenario.node[3].prot  frontDelay  ETV
vector 78  scenario.node[3].prot  frontDelayId  ETV
vector 146  scenario.node[6].prot  frontDelay  ETV
vector 144  scenario.node[6].prot  frontDelayId  ETV
vector 58  scenario.node[2].prot  frontDelay  ETV
vector 56  scenario.node[2].prot  frontDelayId  ETV
vector 124  scenario.node[5].prot  frontDelay  ETV
vector 122  scenario.node[5].prot  frontDelayId  ETV
vector 168  scenario.node[7].prot  frontDelay  ETV
vector 166  scenario.node[7].prot  frontDelayId  ETV
vector 8  scenario.node[0].prot  nodeId  ETV
vector 9  scenario.node[0].prot  busyTime  ETV
vector 10  scenario.node[0].prot  collisions  ETV
vector 30  scenario.node[1].prot  nodeId  ETV
vector 31  scenario.node[1].prot  busyTime  ETV
vector 32  scenario.node[1].prot  collisions  ETV
vector 52  scenario.node[2].prot  nodeId  ETV
vector 53  scenario.node[2].prot  busyTime  ETV
vector 54  scenario.node[2].prot  collisions  ETV
vector 74  scenario.node[3].prot  nodeId  ETV
vector 75  scenario.node[3].prot  busyTime  ETV
vector 76  scenario.node[3].prot  collisions  ETV
vector 96  scenario.node[4].prot  nodeId  ETV
vector 97  scenario.node[4].prot  busyTime  ETV
vector 98  scenario.node[4].prot  collisions  ETV
vector 118  scenario.node[5].prot  nodeId  ETV
vector 119  scenario.node[5].prot  busyTime  ETV
vector 120  scenario.node[5].prot  collisions  ETV
vector 140  scenario.node[6].prot  nodeId  ETV
vector 141  scenario.node[6].prot  busyTime  ETV
vector 142  scenario.node[6].prot  collisions  ETV
vector 162  scenario.node[7].prot  nodeId  ETV
vector 163  scenario.node[7].prot  busyTime  ETV
vector 164  scenario.node[7].prot  collisions  ETV
7	11091 13860 232 328174 1.11 59.91 589 -1.5 1.5 -14.445969899918 993.24092361736
6	24951 18587 232 328174 1.11 59.91 589 -1.472274679513 1.4513434175798 -12.507264912644 675.29835211523
5	43538 12081 232 328174 1.11 59.91 589 36.55 36.55 21527.95 786846.5725
4	55619 17892 232 328174 1.11 59.91 589 138.27520332323 959.25800182118 324043.2978949 211323467.62988
3	73511 17901 232 328174 1.11 59.91 589 12.599076970844 15.853603639796 8223.2832500118 115251.79065057
1	91412 9725 232 328174 1.11 59.91 589 0 0 0 0
0	101137 10314 232 328174 1.11 59.91 589 -1 -1 -589 589
2	111451 9725 232 328174 1.11 59.91 589 0 0 0 0
10	121176 859 5234 328728 2 60 59 0 0 0 0
9	122035 1155 5234 328728 2 60 59 0.023625 0.02625 1.546125 0.040523765625
8	123190 800 5234 328728 2 60 59 0 0 0 0
29	123990 19123 233 328175 1.11 59.91 589 -1.5218249230571 1.5060549793734 -12.714054002248 729.52683289731
28	143113 19226 233 328175 1.11 59.91 589 -1.4294162906857 1.3612703866462 -6.744934735762 513.04659474926
27	162339 12670 233 328175 1.11 59.91 589 36.55 36.55 21527.95 786846.5725
26	175009 18496 233 328175 1.11 59.91 589 125.33075294495 946.70418316882 316395.95734871 203017900.52589
25	193505 18508 233 328175 1.11 59.91 589 12.789861845054 15.681001818271 8227.3961652734 115267.7974052
23	212013 19579 233 328175 1.11 59.91 589 -0.71716495921052 0.69702496795955 -3.9878426125238 138.18363102984
22	231592 18498 233 328175 1.11 59.91 589 8.3611964849105 9.8557825878913 5291.4228044997 47632.079920476
24	250090 10314 233 328175 1.11 59.91 589 1 1 589 589
36	260404 23675 964 328350 1.24182329534 59.941818353729 588 0.099987376137 0.100012639641 58.799994008305 5.8799988085077
35	284079 23675 964 328350 1.24182329534 59.941818353729 588 0.099987376137 0.100012639641 58.799994008305 5.8799988085077
34	307754 16105 964 328350 1.24182329534 59.941818353729 588 1 1 588 588
33	323859 16105 964 328350 1.24182329534 59.941818353729 588 1 1 588 588
32	339964 859 5235 328729 2 60 59 0 0 0 0
31	340823 1214 5235 328729 2 60 59 0.023625 0.02625 1.546125 0.040523765625
30	342037 859 5235 328729 2 60 59 1 1 59 59
51	342896 19207 234 328176 1.11 59.91 589 -1.4848835291319 1.4155807057579 -6.3592475724253 556.18211141734
50	362103 19325 234 328176 1.11 59.91 589 -1.3416404990442 1.2243938937985 -0.25558985124725 391.71628775306
49	381428 12670 234 328176 1.11 59.91 589 36.55 36.55 21527.95 786846.5725
48	394098 18486 234 328176 1.11 59.91 589 112.38631019592 933.81449203322 308747.67830621 194909051.89673
47	412584 18484 234 328176 1.11 59.91 589 12.933337607309 15.553829139549 8228.1708960765 115217.5414038
45	431068 19506 234 328176 1.11 59.91 589 -0.68154802787585 0.63631634016003 -0.70728145570808 107.09083532565
44	450574 18496 234 328176 1.11 59.91 589 8.4343824680218 9.7930064743207 5292.2945371067 47628.564815551
46	469070 10314 234 328176 1.11 59.91 589 2 2 1178 2356
58	479384 23698 1176 328562 1.281932683942 59.981928748237 588 0.099987469736 0.100012528316 58.799995014211 5.8799990096797
57	503082 23690 970 328356 1.241823338518 59.941818396659 588 0.099987375938 0.100012639547 58.799994008057 5.8799988084581
56	526772 16117 1176 328562 1.281932683942 59.981928748237 588 2 2 1176 2352
55	542889 16109 970 328356 1.241823338518 59.941818396659 588 2 2 1176 2352
54	558998 859 5236 328730 2 60 59 0 0 0 0
53	559857 1214 5236 328730 2 60 59 0.023625 0.02625 1.546125 0.040523765625
52	561071 859 5236 328730 2 60 59 2 2 118 236
73	561930 19279 235 328177 1.11 59.91 589 -1.3922110704844 1.2741148917255 0.39764146907829 425.1781973821
72	581209 19409 235 328177 1.11 59.91 589 -1.2341602053278 1.0785510926841 4.7172920935699 301.19943071525
71	600618 12670 235 328177 1.11 59.91 589 36.55 36.55 21527.95 786846.5725
70	613288 18495 235 328177 1.11 59.91 589 99.441867446899 920.65060612885 301100.17256839 186999938.08303
69	631783 18507 235 328177 1.11 59.91 589 13.049475467782 15.453030792719 8226.1477761595 115106.37671292
67	650290 19528 235 328177 1.11 59.91 589 -0.62920934573681 0.56333706279178 2.0256758155449 82.198043495739
66	669818 18502 235 328177 1.11 59.91 589 8.4965046947995 9.7389099724773 5291.4652754224 47598.193449012
68	688320 10314 235 328177 1.11 59.91 589 3 3 1767 5301
80	698634 23704 1040 328426 1.262750381696 59.962758440486 588 0.099987606044 0.100012377061 58.800007008706 5.8800014084221
79	722338 23689 976 328362 1.241823381696 59.94181844052 588 0.099987375826 0.100012639375 58.79999400874 5.8799988085947
78	746027 16124 1040 328426 1.262750381696 59.962758440486 588 3 3 1764 5292
77	762151 16105 976 328362 1.241823381696 59.94181844052 588 3 3 1764 5292
76	778256 859 5237 328731 2 60 59 0 0 0 0
75	779115 1214 5237 328731 2 60 59 0.023625 0.02625 1.546125 0.040523765625
74	780329 859 5237 328731 2 60 59 3 3 177 531
95	781188 17824 236 328178 1.11 59.91 589 -21.924015531775 1.5 -800.70779840047 14488.359515131
94	799012 18079 236 328178 1.11 59.91 589 -9 1.4999999998835 1.3039578461071 1647.6465891135
93	817091 12670 236 328178 1.11 59.91 589 36.55 36.55 21527.95 786846.5725
92	829761 18507 236 328178 1.11 59.91 589 86.497420883179 757.00255759298 256351.88625488 129629755.48127
91	848268 17610 236 328178 1.11 59.91 589 0 18.5189366879 6718.999727005 94908.710011849
89	865878 19235 236 328178 1.11 59.91 589 -5.3948418449136 14.72890255773 1507.1008762335 21879.801907937
88	885113 18482 236 328178 1.11 59.91 589 8.5495577301386 184.10559699498 42362.143352536 6216202.3054283
90	903595 10314 236 328178 1.11 59.91 589 4 4 2356 9424
102	913909 24283 904 328302 1.240526165806 59.940534729216 588 0.099987640212 0.100012345312 58.800007513326 5.8800015093433
101	938192 24278 982 328368 1.241823424874 59.941818986432 588 0.099987380468 0.100012643909 58.799994511474 5.8799989091415
100	962470 16698 904 328302 1.240526165806 59.940534729216 588 4 4 2352 9408
99	979168 16117 982 328368 1.241823424874 59.941818986432 588 4 4 2352 9408
98	995285 859 5238 328732 2 60 59 0 0 0 0
97	996144 1214 5238 328732 2 60 59 0.023625 0.02625 1.546125 0.040523765625
96	997358 859 5238 328732 2 60 59 4 4 236 944
117	998217 19871 237 328179 1.11 59.91 589 -19.039806809038 1.7952723228942 -756.06975733228 12524.33070566
116	1018088 18745 237 328179 1.11 59.91 589 -9 1.6966258315826 -3.909913985908 1613.9329789254
115	1036833 13259 237 328179 1.11 59.91 589 36.55 36.55 21527.95 786846.5725
114	1050092 19092 237 328179 1.11 59.91 589 73.552978134155 744.07357714603 249222.85336585 123568923.53568
113	1069184 18189 237 328179 1.11 59.91 589 0 18.416442575624 6719.0304231904 94752.939045133
111	1087373 19124 237 328179 1.11 59.91 589 -3.1755059263748 0.74000841550063 -0.043735763867408 210.40878566364
110	1106497 19085 237 328179 1.11 59.91 589 4.1417109590935 11.13474187664 4773.0334937831 41075.988256666
112	1125582 10903 237 328179 1.11 59.91 589 5 5 2945 14725
124	1136485 24290 1242 328622 1.287402813476 59.987399381164 588 0.099987647586 0.100012335497 58.800008517604 5.8800017101982
123	1160775 24270 988 328374 1.241823468052 59.941819029578 588 0.099987380623 0.100012643909 58.799994511442 5.8799989091351
122	1185045 16693 1242 328622 1.287402813476 59.987399381164 588 5 5 2940 14700
121	1201738 16701 988 328374 1.241823468052 59.941819029578 588 5 5 2940 14700
120	1218439 918 5239 328733 2 60 59 0 0 0 0
119	1219357 1273 5239 328733 2 60 59 0.023625 0.02625 1.546125 0.040523765625
118	1220630 918 5239 328733 2 60 59 5 5 295 1475
139	1221548 19883 238 328180 1.11 59.91 589 -16.947329472546 2.0005794038473 -720.31224739273 11138.869066504
138	1241431 18750 238 328180 1.11 59.91 589 -9 1.8745151057908 -4.7524794219624 1562.6816391935
137	1260181 13259 238 328180 1.11 59.91 589 36.55 36.55 21527.95 786846.5725
136	1273440 19090 238 328180 1.11 59.91 589 60.608531570435 731.18493449213 242141.83031991 117731752.32203
135	1292530 18196 238 328180 1.11 59.91 589 0 18.327439214007 6719.5613351626 94642.888389695
133	1310726 19175 238 328180 1.11 59.91 589 -3.4689140455075 0.73538241983504 -0.49181283231662 229.49158504597
132	1329901 19098 238 328180 1.11 59.91 589 3.6968763781947 11.092040483479 4725.0336716515 40637.990086699
134	1348999 10903 238 328180 1.11 59.91 589 6 6 3534 21204
146	1359902 24284 1106 328486 1.26671251123 59.966708072581 588 0.099987362971 0.100012643905 58.799994511267 5.8799989091011
145	1384186 24285 994 328380 1.24182351123 59.941819072573 588 0.099987380694 0.100012643909 58.799994511259 5.8799989090985
144	1408471 16703 1106 328486 1.26671251123 59.966708072581 588 6 6 3528 21168
143	1425174 16702 994 328380 1.24182351123 59.941819072573 588 6 6 3528 21168
142	1441876 918 5240 328734 2 60 59 0 0 0 0
141	1442794 1273 5240 328734 2 60 59 0.023625 0.02625 1.546125 0.040523765625
140	1444067 918 5240 328734 2 60 59 6 6 354 2124
161	1444985 19926 239 328181 1.11 59.91 589 -15.268410775375 2.1542915416754 -688.82537203472 10070.14163686
160	1464911 18803 239 328181 1.11 59.91 589 -9 2.0152454573831 -2.0010187728396 1500.3563063406
159	1483714 13259 239 328181 1.11 59.91 589 36.55 36.55 21527.95 786846.5725
158	1496973 19098 239 328181 1.11 59.91 589 47.664088821411 718.24682594509 235090.07551867 112097852.82716
157	1516071 18166 239 328181 1.11 59.91 589 0 18.248151401408 6719.7200211377 94539.523193309
155	1534237 19133 239 328181 1.11 59.91 589 -3.6492547955766 0.78807705667743 -0.11116118089553 238.52485032768
154	1553370 19091 239 328181 1.11 59.91 589 3.4300406864644 11.054122599606 4695.7579690818 40381.780806672
156	1572461 10903 239 328181 1.11 59.91 589 7 7 4123 28861
168	1583364 24295 1308 328694 1.289466899832 59.989463467291 588 0.099987490655 0.100012515732 58.799995517375 5.8799991103112
167	1607659 24260 1000 328386 1.241823554408 59.941819115716 588 0.099987380699 0.100012643909 58.799994511224 5.8799989090915
166	1631919 16696 1308 328694 1.289466899832 59.989463467291 588 7 7 4116 28812
165	1648615 16689 1000 328386 1.241823554408 59.941819115716 588 7 7 4116 28812
164	1665304 918 5241 328735 2 60 59 0 0 0 0
163	1666222 1273 5241 328735 2 60 59 0.023625 0.02625 1.546125 0.040523765625
162	1667495 918 5241 328735 2 60 59 7 7 413 2891
