file 951419 1512144284                                          
version 2
run SinusoidalAccInjectionAttack-265-20171201-17:04:26-75047
attr CACCSpacing 20
attr attackAcc 30
attr attackPos 7
attr attackSpeed 150
attr attackStart 30
attr attacker 4
attr beaconInterval 0.1
attr configname SinusoidalAccInjectionAttack
attr controller 1
attr datetime 20171201-17:04:26
attr experiment SinusoidalAccInjectionAttack
attr fakeAcc "(4 == 4)"
attr fakePos "(4 == 2)"
attr fakeSpeed "(4 == 3)"
attr inifile omnetpp_265.ini
attr iterationvars "$attacker=4, $attackSpeed=150, $attackPos=7, $attackAcc=30, $leaderSpeed=100, $controller=1, $CACCSpacing=20, $sController=\"CACC\", $attackStart=30, $0=20, $1=0, $nCars=8, $platoonSize=8, $nLanes=1, $beaconInterval=0.1, $priority=2, $packetSize=200, $ploegH=0.5, $leaderHeadway=1.2, $fakeSpeed=(4 == 3), $fakeAcc=(4 == 4), $fakePos=(4 == 2)"
attr iterationvarsf attacker=4,attackSpeed=150,attackPos=7,attackAcc=30,leaderSpeed=100,controller=1,CACCSpacing=20,sController=CACC,attackStart=30,20,0,nCars=8,platoonSize=8,nLanes=1,beaconInterval=0.1,priority=2,packetSize=200,ploegH=0.5,leaderHeadway=1.2,fakeSpeed=(4_==_3),fakeAcc=(4_==_4),fakePos=(4_==_2)-
attr leaderHeadway 1.2
attr leaderSpeed 100
attr measurement "$attacker=4, $attackSpeed=150, $attackPos=7, $attackAcc=30, $leaderSpeed=100, $controller=1, $CACCSpacing=20, $sController=\"CACC\", $attackStart=30, $0=20, $1=0, $nCars=8, $platoonSize=8, $nLanes=1, $beaconInterval=0.1, $priority=2, $packetSize=200, $ploegH=0.5, $leaderHeadway=1.2, $fakeSpeed=(4 == 3), $fakeAcc=(4 == 4), $fakePos=(4 == 2)"
attr nCars 8
attr nLanes 1
attr network scenario
attr packetSize 200
attr platoonSize 8
attr ploegH 0.5
attr priority 2
attr processid 75047
attr repetition 0
attr replication #0
attr resultdir results
attr runnumber 265
attr sController "\"CACC\""
attr seedset 0
param **.coreDebug false
param **.debug false
param **.headway 0.1s
param **.numberOfCars 8
param **.numberOfCarsPerPlatoon 8
param **.numberOfLanes 1
param **.numericController 1
param **.traffic.nCars 8
param **.traffic.nLanes 1
param **.traffic.platoonInsertDistance 20m
param **.traffic.platoonInsertHeadway 0s
param **.traffic.platoonInsertSpeed 100kmph
param **.traffic.platoonInsertTime "1 s"
param **.traffic.platoonLeaderHeadway 1.2s
param **.traffic.platoonSize 8
param **.traffic.platooningVType "\"vtypeauto\""
param **.traffic_type "\"PlatoonsTrafficManager\""
param *.**.nic.mac1609_4.bitrate 6Mbps
param *.**.nic.mac1609_4.txPower 100mW
param *.**.nic.mac1609_4.useServiceChannel false
param *.**.nic.phy80211p.analogueModels "xmldoc(\"config.xml\")"
param *.**.nic.phy80211p.decider "xmldoc(\"config.xml\")"
param *.**.nic.phy80211p.maxTXPower 100mW
param *.**.nic.phy80211p.sensitivity -94dBm
param *.**.nic.phy80211p.thermalNoise -95dBm
param *.**.nic.phy80211p.usePropagationDelay true
param *.**.nic.phy80211p.useThermalNoise true
param *.annotations.draw false
param *.connectionManager.alpha 2.0
param *.connectionManager.carrierFrequency "5.890e9 Hz"
param *.connectionManager.pMax 100mW
param *.connectionManager.sat -94dBm
param *.connectionManager.sendDirect true
param *.manager.autoShutdown true
param *.manager.commandLine "\"sumo --remote-port $port --seed $seed --configuration-file $configFile\""
param *.manager.configFile "\"./sumocfg/freeway.sumo.cfg\""
param *.manager.host "\"localhost\""
param *.manager.margin 25
param *.manager.moduleDisplayString "\"\""
param *.manager.moduleName "\"node\""
param *.manager.moduleType "\"Car\""
param *.manager.updateInterval 0.01s
param *.node[*].appl.attackStart 30s
param *.node[*].appl.attackerType 4
param *.node[*].appl.simulationDuration "60 s"
param *.node[*].appl_type "\"SimplePlatooningApp\""
param *.node[*].helper.nCars 8
param *.node[*].helper.nLanes 1
param *.node[*].helper.platoonSize 8
param *.node[*].helper_type "\"PositionHelper\""
param *.node[*].mobility.x 0
param *.node[*].mobility.y 0
param *.node[*].mobility.z 1.895
param *.node[*].prot.attackStart 30s
param *.node[*].prot.attackerType 4
param *.node[*].prot.attackingNode 3
param *.node[*].prot.beaconingInterval 0.1s
param *.node[*].prot.fakeAcc "(4 == 4)"
param *.node[*].prot.fakePos "(4 == 2)"
param *.node[*].prot.fakeSpeed "(4 == 3)"
param *.node[*].prot.maliciousAcc "30 mpss"
param *.node[*].prot.maliciousSpeed 150kmph
param *.node[*].prot.packetSize 200
param *.node[*].prot.priority 2
param *.node[*].prot.shiftX "7 m"
param *.node[*].prot.useControllerAcceleration true
param *.node[*].protocol_type "\"SimplePlatooningBeaconing\""
param *.node[*].scenario.accHeadway 0.1s
param *.node[*].scenario.caccC1 0.5
param *.node[*].scenario.caccOmegaN "0.2 Hz"
param *.node[*].scenario.caccSpacing 20m
param *.node[*].scenario.caccXi 1
param *.node[*].scenario.controller "\"CACC\""
param *.node[*].scenario.engineTau "0.5 s"
param *.node[*].scenario.leaderHeadway 1.2s
param *.node[*].scenario.leaderSpeed 100kmph
param *.node[*].scenario.ploegH 0.5s
param *.node[*].scenario.ploegKd 0.7
param *.node[*].scenario.ploegKp 0.2
param *.node[*].scenario.useRealisticEngine false
param *.node[*].scenario_type "\"SinusoidalScenario\""
param *.node[*].unicast.packetLossRate 0
param *.obstacles.debug false
param *.playgroundSizeX 65000m
param *.playgroundSizeY 25000m
param *.playgroundSizeZ 50m
param *.world.use2D false
param *.world.useTorus false

vector 0  scenario.node[0].appl  distance  ETV
vector 1  scenario.node[0].appl  relativeSpeed  ETV
vector 2  scenario.node[0].appl  nodeId  ETV
vector 6  scenario.node[0].appl  acceleration  ETV
vector 7  scenario.node[0].appl  controllerAcceleration  ETV
vector 3  scenario.node[0].appl  speed  ETV
vector 4  scenario.node[0].appl  posx  ETV
vector 5  scenario.node[0].appl  posy  ETV
vector 22  scenario.node[1].appl  distance  ETV
vector 23  scenario.node[1].appl  relativeSpeed  ETV
vector 24  scenario.node[1].appl  nodeId  ETV
vector 28  scenario.node[1].appl  acceleration  ETV
vector 29  scenario.node[1].appl  controllerAcceleration  ETV
vector 25  scenario.node[1].appl  speed  ETV
vector 26  scenario.node[1].appl  posx  ETV
vector 27  scenario.node[1].appl  posy  ETV
vector 44  scenario.node[2].appl  distance  ETV
vector 45  scenario.node[2].appl  relativeSpeed  ETV
vector 46  scenario.node[2].appl  nodeId  ETV
vector 50  scenario.node[2].appl  acceleration  ETV
vector 51  scenario.node[2].appl  controllerAcceleration  ETV
vector 47  scenario.node[2].appl  speed  ETV
vector 48  scenario.node[2].appl  posx  ETV
vector 49  scenario.node[2].appl  posy  ETV
vector 66  scenario.node[3].appl  distance  ETV
vector 67  scenario.node[3].appl  relativeSpeed  ETV
vector 68  scenario.node[3].appl  nodeId  ETV
vector 72  scenario.node[3].appl  acceleration  ETV
vector 73  scenario.node[3].appl  controllerAcceleration  ETV
vector 69  scenario.node[3].appl  speed  ETV
vector 70  scenario.node[3].appl  posx  ETV
vector 71  scenario.node[3].appl  posy  ETV
vector 88  scenario.node[4].appl  distance  ETV
vector 89  scenario.node[4].appl  relativeSpeed  ETV
vector 90  scenario.node[4].appl  nodeId  ETV
vector 94  scenario.node[4].appl  acceleration  ETV
vector 95  scenario.node[4].appl  controllerAcceleration  ETV
vector 91  scenario.node[4].appl  speed  ETV
vector 92  scenario.node[4].appl  posx  ETV
vector 93  scenario.node[4].appl  posy  ETV
vector 110  scenario.node[5].appl  distance  ETV
vector 111  scenario.node[5].appl  relativeSpeed  ETV
vector 112  scenario.node[5].appl  nodeId  ETV
vector 116  scenario.node[5].appl  acceleration  ETV
vector 117  scenario.node[5].appl  controllerAcceleration  ETV
vector 113  scenario.node[5].appl  speed  ETV
vector 114  scenario.node[5].appl  posx  ETV
vector 115  scenario.node[5].appl  posy  ETV
vector 132  scenario.node[6].appl  distance  ETV
vector 133  scenario.node[6].appl  relativeSpeed  ETV
vector 134  scenario.node[6].appl  nodeId  ETV
vector 138  scenario.node[6].appl  acceleration  ETV
vector 139  scenario.node[6].appl  controllerAcceleration  ETV
vector 135  scenario.node[6].appl  speed  ETV
vector 136  scenario.node[6].appl  posx  ETV
vector 137  scenario.node[6].appl  posy  ETV
vector 154  scenario.node[7].appl  distance  ETV
vector 155  scenario.node[7].appl  relativeSpeed  ETV
vector 156  scenario.node[7].appl  nodeId  ETV
vector 160  scenario.node[7].appl  acceleration  ETV
vector 161  scenario.node[7].appl  controllerAcceleration  ETV
vector 157  scenario.node[7].appl  speed  ETV
vector 158  scenario.node[7].appl  posx  ETV
vector 159  scenario.node[7].appl  posy  ETV
vector 80  scenario.node[3].prot  frontDelay  ETV
vector 78  scenario.node[3].prot  frontDelayId  ETV
vector 58  scenario.node[2].prot  frontDelay  ETV
vector 56  scenario.node[2].prot  frontDelayId  ETV
vector 168  scenario.node[7].prot  frontDelay  ETV
vector 166  scenario.node[7].prot  frontDelayId  ETV
vector 35  scenario.node[1].prot  leaderDelay  ETV
vector 33  scenario.node[1].prot  leaderDelayId  ETV
vector 36  scenario.node[1].prot  frontDelay  ETV
vector 34  scenario.node[1].prot  frontDelayId  ETV
vector 57  scenario.node[2].prot  leaderDelay  ETV
vector 55  scenario.node[2].prot  leaderDelayId  ETV
vector 79  scenario.node[3].prot  leaderDelay  ETV
vector 77  scenario.node[3].prot  leaderDelayId  ETV
vector 101  scenario.node[4].prot  leaderDelay  ETV
vector 99  scenario.node[4].prot  leaderDelayId  ETV
vector 123  scenario.node[5].prot  leaderDelay  ETV
vector 121  scenario.node[5].prot  leaderDelayId  ETV
vector 145  scenario.node[6].prot  leaderDelay  ETV
vector 143  scenario.node[6].prot  leaderDelayId  ETV
vector 167  scenario.node[7].prot  leaderDelay  ETV
vector 165  scenario.node[7].prot  leaderDelayId  ETV
vector 124  scenario.node[5].prot  frontDelay  ETV
vector 122  scenario.node[5].prot  frontDelayId  ETV
vector 102  scenario.node[4].prot  frontDelay  ETV
vector 100  scenario.node[4].prot  frontDelayId  ETV
vector 146  scenario.node[6].prot  frontDelay  ETV
vector 144  scenario.node[6].prot  frontDelayId  ETV
vector 8  scenario.node[0].prot  nodeId  ETV
vector 9  scenario.node[0].prot  busyTime  ETV
vector 10  scenario.node[0].prot  collisions  ETV
vector 30  scenario.node[1].prot  nodeId  ETV
vector 31  scenario.node[1].prot  busyTime  ETV
vector 32  scenario.node[1].prot  collisions  ETV
vector 52  scenario.node[2].prot  nodeId  ETV
vector 53  scenario.node[2].prot  busyTime  ETV
vector 54  scenario.node[2].prot  collisions  ETV
vector 74  scenario.node[3].prot  nodeId  ETV
vector 75  scenario.node[3].prot  busyTime  ETV
vector 76  scenario.node[3].prot  collisions  ETV
vector 96  scenario.node[4].prot  nodeId  ETV
vector 97  scenario.node[4].prot  busyTime  ETV
vector 98  scenario.node[4].prot  collisions  ETV
vector 118  scenario.node[5].prot  nodeId  ETV
vector 119  scenario.node[5].prot  busyTime  ETV
vector 120  scenario.node[5].prot  collisions  ETV
vector 140  scenario.node[6].prot  nodeId  ETV
vector 141  scenario.node[6].prot  busyTime  ETV
vector 142  scenario.node[6].prot  collisions  ETV
vector 162  scenario.node[7].prot  nodeId  ETV
vector 163  scenario.node[7].prot  busyTime  ETV
vector 164  scenario.node[7].prot  collisions  ETV
7	11086 7990 232 187053 1.11 34.61 336 -1.5 1.5 -15.781546288964 536.79312964224
6	19076 10552 232 187053 1.11 34.61 336 -1.4722746794938 1.451340770512 -9.882496231554 363.90908402578
5	29628 6768 232 187053 1.11 34.61 336 36.55 36.55 12280.8 448863.24
4	36396 10090 232 187053 1.11 34.61 336 204.21764297459 1139.4219523203 226028.61550668 176645073.73328
3	46486 10092 232 187053 1.11 34.61 336 26.488037261118 29.742492528104 9379.4841824034 262073.12840818
1	56578 5424 232 187053 1.11 34.61 336 0 0 0 0
0	62002 5760 232 187053 1.11 34.61 336 -1 -1 -336 336
2	67762 5424 232 187053 1.11 34.61 336 0 0 0 0
10	73186 468 5102 183568 2 34 33 0 0 0 0
9	73654 634 5102 183568 2 34 33 0.022969 0.02625 0.862969 0.022577574961
8	74288 435 5102 183568 2 34 33 0 0 0 0
29	74723 10126 233 187054 1.11 34.61 336 -1.5112642291228 1.5120701307444 -15.755499938442 536.88148872684
28	84849 10868 233 187054 1.11 34.61 336 -1.4820302895274 1.4492283744282 -9.1855788162846 363.26591551022
27	95717 7104 233 187054 1.11 34.61 336 36.55 36.55 12280.8 448863.24
26	102821 10426 233 187054 1.11 34.61 336 180.21764297485 1115.4072679261 217951.83829278 165969337.57626
25	113247 10421 233 187054 1.11 34.61 336 26.484959834617 29.741426917503 9379.3632572676 262066.39280357
23	123668 11383 233 187054 1.11 34.61 336 -0.07106480527489 0.076625316759483 0.21975009803659 0.93897455839169
22	135051 10413 233 187054 1.11 34.61 336 19.939712208032 20.145466381539 6732.7747954048 134912.46728452
24	145464 5760 233 187054 1.11 34.61 336 1 1 336 336
36	151224 13307 1032 186740 1.254913282269 34.554915303515 334 0.099909240509 0.100091242722 33.400015262796 3.3400036026392
35	164531 13307 1032 186740 1.254913282269 34.554915303515 334 0.099909240509 0.100091242722 33.400015262796 3.3400036026392
34	177838 9031 1032 186740 1.254913282269 34.554915303515 334 1 1 334 334
33	186869 9031 1032 186740 1.254913282269 34.554915303515 334 1 1 334 334
32	195900 468 5103 183569 2 34 33 0 0 0 0
31	196368 667 5103 183569 2 34 33 0.022969 0.02625 0.862969 0.022577574961
30	197035 468 5103 183569 2 34 33 1 1 33 33
51	197503 10811 234 187055 1.11 34.61 336 -1.4951715929476 1.4969403141346 -15.168476912902 525.28473162684
50	208314 10876 234 187055 1.11 34.61 336 -1.4749478849591 1.4483793295192 -8.6771046650288 360.83255688857
49	219190 7104 234 187055 1.11 34.61 336 36.55 36.55 12280.8 448863.24
48	226294 10433 234 187055 1.11 34.61 336 156.21764297485 1091.467656353 209891.44149024 155708334.26501
47	236727 10431 234 187055 1.11 34.61 336 26.488661481507 29.738423576886 9379.9843070295 262099.46743242
45	247158 11397 234 187055 1.11 34.61 336 -0.042015735631203 0.035321632278009 -0.52919397373449 0.22487784296271
44	258555 10402 234 187055 1.11 34.61 336 19.926036215389 20.070368566761 6716.4092235374 134256.78312459
46	268957 5760 234 187055 1.11 34.61 336 2 2 672 1344
58	274717 13256 900 186602 1.22965940166 34.529661440637 334 0.099987239937 0.100000243927 33.400002280527 3.3400004571011
57	287973 13295 1038 186746 1.254913362325 34.554915383379 334 0.099909240517 0.100091242737 33.400015262604 3.3400036026008
56	301268 8991 900 186602 1.22965940166 34.529661440637 334 2 2 668 1336
55	310259 9022 1038 186746 1.254913362325 34.554915383379 334 2 2 668 1336
54	319281 468 5104 183570 2 34 33 0 0 0 0
53	319749 667 5104 183570 2 34 33 0.022969 0.02625 0.862969 0.022577574961
52	320416 468 5104 183570 2 34 33 2 2 66 132
73	320884 10816 235 187056 1.11 34.61 336 -1.4890347547433 1.4892302580382 -14.831617861809 511.26602356795
72	331700 10872 235 187056 1.11 34.61 336 -1.4633940841826 1.4358250217548 -8.360473123977 354.25037015046
71	342572 7104 235 187056 1.11 34.61 336 36.55 36.55 12280.8 448863.24
70	349676 10434 235 187056 1.11 34.61 336 132.21764297485 1067.4803828483 201828.01622666 145828629.50359
69	360110 10424 235 187056 1.11 34.61 336 26.50145233166 29.728259437828 9380.1225625278 262103.17186053
67	370534 11506 235 187056 1.11 34.61 336 -0.022576863839589 0.018794910007784 -0.051484451646164 0.041049739008015
66	382040 10394 235 187056 1.11 34.61 336 19.965708993444 20.045084633357 6719.4280286801 134377.23713681
68	392434 5760 235 187056 1.11 34.61 336 3 3 1008 3024
80	398194 13307 832 186540 1.213906321605 34.51390836092 334 0.099987241264 0.100000243937 33.400002280865 3.3400004571685
79	411501 13268 1044 186752 1.25491344238 34.554915463398 334 0.099909240518 0.100091242747 33.400015262568 3.3400036025936
78	424769 9036 832 186540 1.213906321605 34.51390836092 334 3 3 1002 3006
77	433805 8989 1044 186752 1.25491344238 34.554915463398 334 3 3 1002 3006
76	442794 468 5105 183571 2 34 33 0 0 0 0
75	443262 667 5105 183571 2 34 33 0.022968 0.02625 0.862968 0.022577529024
74	443929 468 5105 183571 2 34 33 3 3 99 297
117	444397 10633 237 187058 1.11 34.61 336 -1.4897290267821 1.5 53.086942659703 527.92012951441
116	455030 11191 237 187058 1.11 34.61 336 -1.4478111731403 1.4994606988971 46.419159058109 374.0156758225
115	466221 7440 237 187058 1.11 34.61 336 36.55 36.55 12280.8 448863.24
114	473661 10756 237 187058 1.11 34.61 336 84.217642974854 1025.0056211753 185744.45247803 127317716.88884
113	484417 10761 237 187058 1.11 34.61 336 26.515093194568 32.358745928263 9437.2720173056 265479.9609787
111	495178 11586 237 187058 1.11 34.61 336 -0.038427828263298 5.5508990642445 146.20929219634 564.38129868939
110	506764 10741 237 187058 1.11 34.61 336 19.973864896653 34.416084573218 6968.2423822714 146553.95651114
112	517505 6096 237 187058 1.11 34.61 336 5 5 1680 8400
124	523601 13638 1172 186886 1.265750082823 34.565752206877 334 0.099987240401 0.100000243921 33.400002365604 3.3400004741165
123	537239 13640 1056 186764 1.254913602491 34.554915606141 334 0.09990924051 0.100091242743 33.4000152452 3.3400035991199
122	550879 9376 1172 186886 1.265750082823 34.565752206877 334 5 5 1670 8350
121	560255 9376 1056 186764 1.254913602491 34.554915606141 334 5 5 1670 8350
120	569631 501 5107 183573 2 34 33 0 0 0 0
119	570132 700 5107 183573 2 34 33 0.022968 0.02625 0.862968 0.022577529024
118	570832 501 5107 183573 2 34 33 5 5 165 825
139	571333 11128 238 187059 1.11 34.61 336 -1.4807666972706 1.5050357427632 23.066824515284 465.50329871021
138	582461 11187 238 187059 1.11 34.61 336 -1.4505591798457 1.441319119138 21.735145141826 330.58094694905
137	593648 7440 238 187059 1.11 34.61 336 36.55 36.55 12280.8 448863.24
136	601088 10764 238 187059 1.11 34.61 336 60.217642974853 998.33501482961 177658.21068207 118552267.95313
135	611852 10759 238 187059 1.11 34.61 336 26.508951816254 29.935830852976 9409.7100421357 263801.83656075
133	622611 11715 238 187059 1.11 34.61 336 -0.019950013515452 2.4094140533683 27.097783579296 43.618075245199
132	634326 10740 238 187059 1.11 34.61 336 19.991561007854 22.622148044165 6741.6905564634 135301.15768177
134	645066 6096 238 187059 1.11 34.61 336 6 6 2016 12096
146	651162 13639 1312 187015 1.305160322989 34.605162325014 334 0.099987240083 0.100000243926 33.400002243575 3.3400004497107
145	664801 13641 1062 186770 1.254913682546 34.554915694623 334 0.099909240511 0.100091242741 33.400015253627 3.3400036008053
144	678442 9374 1312 187015 1.305160322989 34.605162325014 334 6 6 2004 12024
143	687816 9374 1062 186770 1.254913682546 34.554915694623 334 6 6 2004 12024
142	697190 501 5108 183574 2 34 33 0 0 0 0
141	697691 700 5108 183574 2 34 33 0.022969 0.02625 0.862969 0.022577574961
140	698391 501 5108 183574 2 34 33 6 6 198 1188
161	698892 11111 239 187060 1.11 34.61 336 -1.493537332609 1.500561783114 7.0273642995696 482.6916061623
160	710003 11233 239 187060 1.11 34.61 336 -1.4563373264433 1.4382185084475 8.1469139749604 330.00197798137
159	721236 7440 239 187060 1.11 34.61 336 36.55 36.55 12280.8 448863.24
158	728676 10754 239 187060 1.11 34.61 336 36.217641067505 972.95588172674 169581.71989215 110195552.31085
157	739430 10764 239 187060 1.11 34.61 336 26.505787416729 29.718245299553 9395.4471576216 262969.06412774
155	750194 11891 239 187060 1.11 34.61 336 -0.0092142787050875 1.3273284790236 14.045533062714 11.98195151656
154	762085 10766 239 187060 1.11 34.61 336 19.980359088947 21.352505258916 6732.2055322213 134896.97287756
156	772851 6096 239 187060 1.11 34.61 336 7 7 2352 16464
168	778947 13638 975 186677 1.254434801937 34.554436836559 334 0.099987240242 0.10000024393 33.400002276172 3.34000045623
167	792585 13654 1068 186776 1.254913762602 34.554915779015 334 0.099909240517 0.100091242748 33.400015257963 3.3400036016725
166	806239 9373 975 186677 1.254434801937 34.554436836559 334 7 7 2338 16366
165	815612 9382 1068 186776 1.254913762602 34.554915779015 334 7 7 2338 16366
164	824994 501 5109 183575 2 34 33 0 0 0 0
163	825495 700 5109 183575 2 34 33 0.022969 0.02625 0.862969 0.022577574961
162	826195 501 5109 183575 2 34 33 7 7 231 1617
88	826696 10434 236 187061 1.11 34.61 337 0 20.02476109234 6428.4643554565 126094.7026795
89	837130 11493 236 187061 1.11 34.61 337 -10.956582186189 0.013417881691584 -215.25735265352 1438.9033935127
90	848623 5778 236 187061 1.11 34.61 337 4 4 1348 5392
91	854401 10474 236 187061 1.11 34.61 337 26.512094961906 37.934644992507 9622.4415827189 276312.32854291
92	864875 10438 236 187061 1.11 34.61 337 108.21764297485 1063.5332237298 195123.17278244 138068342.17286
93	875313 7126 236 187061 1.11 34.61 337 36.55 36.55 12317.35 450199.1425
94	882439 10858 236 187061 1.11 34.61 337 -1.4529610539146 2.4999999999999 105.0628224488 586.0047827433
95	893297 10798 236 187061 1.11 34.61 337 -1.482146824282 15.597271614524 591.01785630295 8424.6603840651
96	904095 468 5106 183572 2 34 33 4 4 132 528
97	904563 667 5106 183572 2 34 33 0.022969 0.02625 0.862969 0.022577574961
98	905230 468 5106 183572 2 34 33 0 0 0 0
99	905698 9045 1050 186758 1.254913522436 34.554915478739 334 4 4 1336 5344
100	914743 9378 1246 186949 1.303564162878 34.603553107803 334 4 4 1336 5344
101	924121 13647 1050 186758 1.254913522436 34.554915478739 334 0.099909240516 0.100091242749 33.400015197853 3.3400035896503
102	937768 13651 1246 186949 1.303564162878 34.603553107803 334 0.099987214037 0.100000243924 33.399989186475 3.3399978384539
