file 1683709 1512143700                                         
version 2
run SinusoidalAccInjectionAttack-152-20171201-16:54:30-113982
attr CACCSpacing 20
attr attackAcc 0
attr attackPos 7
attr attackSpeed 150
attr attackStart 30
attr attacker 4
attr beaconInterval 0.1
attr configname SinusoidalAccInjectionAttack
attr controller 2
attr datetime 20171201-16:54:30
attr experiment SinusoidalAccInjectionAttack
attr fakeAcc "(4 == 4)"
attr fakePos "(4 == 2)"
attr fakeSpeed "(4 == 3)"
attr inifile omnetpp_152.ini
attr iterationvars "$attacker=4, $attackSpeed=150, $attackPos=7, $attackAcc=0, $leaderSpeed=100, $controller=2, $CACCSpacing=20, $sController=\"PLOEG\", $attackStart=30, $0=2, $1=0.5, $nCars=8, $platoonSize=8, $nLanes=1, $beaconInterval=0.1, $priority=2, $packetSize=200, $ploegH=0.5, $leaderHeadway=1.2, $fakeSpeed=(4 == 3), $fakeAcc=(4 == 4), $fakePos=(4 == 2)"
attr iterationvarsf attacker=4,attackSpeed=150,attackPos=7,attackAcc=0,leaderSpeed=100,controller=2,CACCSpacing=20,sController=PLOEG,attackStart=30,2,0.5,nCars=8,platoonSize=8,nLanes=1,beaconInterval=0.1,priority=2,packetSize=200,ploegH=0.5,leaderHeadway=1.2,fakeSpeed=(4_==_3),fakeAcc=(4_==_4),fakePos=(4_==_2)-
attr leaderHeadway 1.2
attr leaderSpeed 100
attr measurement "$attacker=4, $attackSpeed=150, $attackPos=7, $attackAcc=0, $leaderSpeed=100, $controller=2, $CACCSpacing=20, $sController=\"PLOEG\", $attackStart=30, $0=2, $1=0.5, $nCars=8, $platoonSize=8, $nLanes=1, $beaconInterval=0.1, $priority=2, $packetSize=200, $ploegH=0.5, $leaderHeadway=1.2, $fakeSpeed=(4 == 3), $fakeAcc=(4 == 4), $fakePos=(4 == 2)"
attr nCars 8
attr nLanes 1
attr network scenario
attr packetSize 200
attr platoonSize 8
attr ploegH 0.5
attr priority 2
attr processid 113982
attr repetition 2
attr replication #2
attr resultdir results
attr runnumber 152
attr sController "\"PLOEG\""
attr seedset 2
param **.coreDebug false
param **.debug false
param **.headway 0.1s
param **.numberOfCars 8
param **.numberOfCarsPerPlatoon 8
param **.numberOfLanes 1
param **.numericController 2
param **.traffic.nCars 8
param **.traffic.nLanes 1
param **.traffic.platoonInsertDistance 2m
param **.traffic.platoonInsertHeadway 0.5s
param **.traffic.platoonInsertSpeed 100kmph
param **.traffic.platoonInsertTime "1 s"
param **.traffic.platoonLeaderHeadway 1.2s
param **.traffic.platoonSize 8
param **.traffic.platooningVType "\"vtypeauto\""
param **.traffic_type "\"PlatoonsTrafficManager\""
param *.**.nic.mac1609_4.bitrate 6Mbps
param *.**.nic.mac1609_4.txPower 100mW
param *.**.nic.mac1609_4.useServiceChannel false
param *.**.nic.phy80211p.analogueModels "xmldoc(\"config.xml\")"
param *.**.nic.phy80211p.decider "xmldoc(\"config.xml\")"
param *.**.nic.phy80211p.maxTXPower 100mW
param *.**.nic.phy80211p.sensitivity -94dBm
param *.**.nic.phy80211p.thermalNoise -95dBm
param *.**.nic.phy80211p.usePropagationDelay true
param *.**.nic.phy80211p.useThermalNoise true
param *.annotations.draw false
param *.connectionManager.alpha 2.0
param *.connectionManager.carrierFrequency "5.890e9 Hz"
param *.connectionManager.pMax 100mW
param *.connectionManager.sat -94dBm
param *.connectionManager.sendDirect true
param *.manager.autoShutdown true
param *.manager.commandLine "\"sumo --remote-port $port --seed $seed --configuration-file $configFile\""
param *.manager.configFile "\"./sumocfg/freeway.sumo.cfg\""
param *.manager.host "\"localhost\""
param *.manager.margin 25
param *.manager.moduleDisplayString "\"\""
param *.manager.moduleName "\"node\""
param *.manager.moduleType "\"Car\""
param *.manager.updateInterval 0.01s
param *.node[*].appl.attackStart 30s
param *.node[*].appl.attackerType 4
param *.node[*].appl.simulationDuration "60 s"
param *.node[*].appl_type "\"SimplePlatooningApp\""
param *.node[*].helper.nCars 8
param *.node[*].helper.nLanes 1
param *.node[*].helper.platoonSize 8
param *.node[*].helper_type "\"PositionHelper\""
param *.node[*].mobility.x 0
param *.node[*].mobility.y 0
param *.node[*].mobility.z 1.895
param *.node[*].prot.attackStart 30s
param *.node[*].prot.attackerType 4
param *.node[*].prot.attackingNode 3
param *.node[*].prot.beaconingInterval 0.1s
param *.node[*].prot.fakeAcc "(4 == 4)"
param *.node[*].prot.fakePos "(4 == 2)"
param *.node[*].prot.fakeSpeed "(4 == 3)"
param *.node[*].prot.maliciousAcc "0 mpss"
param *.node[*].prot.maliciousSpeed 150kmph
param *.node[*].prot.packetSize 200
param *.node[*].prot.priority 2
param *.node[*].prot.shiftX "7 m"
param *.node[*].prot.useControllerAcceleration true
param *.node[*].protocol_type "\"SimplePlatooningBeaconing\""
param *.node[*].scenario.accHeadway 0.1s
param *.node[*].scenario.caccC1 0.5
param *.node[*].scenario.caccOmegaN "0.2 Hz"
param *.node[*].scenario.caccSpacing 20m
param *.node[*].scenario.caccXi 1
param *.node[*].scenario.controller "\"PLOEG\""
param *.node[*].scenario.engineTau "0.5 s"
param *.node[*].scenario.leaderHeadway 1.2s
param *.node[*].scenario.leaderSpeed 100kmph
param *.node[*].scenario.ploegH 0.5s
param *.node[*].scenario.ploegKd 0.7
param *.node[*].scenario.ploegKp 0.2
param *.node[*].scenario.useRealisticEngine false
param *.node[*].scenario_type "\"SinusoidalScenario\""
param *.node[*].unicast.packetLossRate 0
param *.obstacles.debug false
param *.playgroundSizeX 65000m
param *.playgroundSizeY 25000m
param *.playgroundSizeZ 50m
param *.world.use2D false
param *.world.useTorus false

vector 0  scenario.node[0].appl  distance  ETV
vector 1  scenario.node[0].appl  relativeSpeed  ETV
vector 2  scenario.node[0].appl  nodeId  ETV
vector 6  scenario.node[0].appl  acceleration  ETV
vector 7  scenario.node[0].appl  controllerAcceleration  ETV
vector 3  scenario.node[0].appl  speed  ETV
vector 4  scenario.node[0].appl  posx  ETV
vector 5  scenario.node[0].appl  posy  ETV
vector 22  scenario.node[1].appl  distance  ETV
vector 23  scenario.node[1].appl  relativeSpeed  ETV
vector 24  scenario.node[1].appl  nodeId  ETV
vector 28  scenario.node[1].appl  acceleration  ETV
vector 29  scenario.node[1].appl  controllerAcceleration  ETV
vector 25  scenario.node[1].appl  speed  ETV
vector 26  scenario.node[1].appl  posx  ETV
vector 27  scenario.node[1].appl  posy  ETV
vector 44  scenario.node[2].appl  distance  ETV
vector 45  scenario.node[2].appl  relativeSpeed  ETV
vector 46  scenario.node[2].appl  nodeId  ETV
vector 50  scenario.node[2].appl  acceleration  ETV
vector 51  scenario.node[2].appl  controllerAcceleration  ETV
vector 47  scenario.node[2].appl  speed  ETV
vector 48  scenario.node[2].appl  posx  ETV
vector 49  scenario.node[2].appl  posy  ETV
vector 66  scenario.node[3].appl  distance  ETV
vector 67  scenario.node[3].appl  relativeSpeed  ETV
vector 68  scenario.node[3].appl  nodeId  ETV
vector 72  scenario.node[3].appl  acceleration  ETV
vector 73  scenario.node[3].appl  controllerAcceleration  ETV
vector 69  scenario.node[3].appl  speed  ETV
vector 70  scenario.node[3].appl  posx  ETV
vector 71  scenario.node[3].appl  posy  ETV
vector 88  scenario.node[4].appl  distance  ETV
vector 89  scenario.node[4].appl  relativeSpeed  ETV
vector 90  scenario.node[4].appl  nodeId  ETV
vector 94  scenario.node[4].appl  acceleration  ETV
vector 95  scenario.node[4].appl  controllerAcceleration  ETV
vector 91  scenario.node[4].appl  speed  ETV
vector 92  scenario.node[4].appl  posx  ETV
vector 93  scenario.node[4].appl  posy  ETV
vector 110  scenario.node[5].appl  distance  ETV
vector 111  scenario.node[5].appl  relativeSpeed  ETV
vector 112  scenario.node[5].appl  nodeId  ETV
vector 116  scenario.node[5].appl  acceleration  ETV
vector 117  scenario.node[5].appl  controllerAcceleration  ETV
vector 113  scenario.node[5].appl  speed  ETV
vector 114  scenario.node[5].appl  posx  ETV
vector 115  scenario.node[5].appl  posy  ETV
vector 132  scenario.node[6].appl  distance  ETV
vector 133  scenario.node[6].appl  relativeSpeed  ETV
vector 134  scenario.node[6].appl  nodeId  ETV
vector 138  scenario.node[6].appl  acceleration  ETV
vector 139  scenario.node[6].appl  controllerAcceleration  ETV
vector 135  scenario.node[6].appl  speed  ETV
vector 136  scenario.node[6].appl  posx  ETV
vector 137  scenario.node[6].appl  posy  ETV
vector 154  scenario.node[7].appl  distance  ETV
vector 155  scenario.node[7].appl  relativeSpeed  ETV
vector 156  scenario.node[7].appl  nodeId  ETV
vector 160  scenario.node[7].appl  acceleration  ETV
vector 161  scenario.node[7].appl  controllerAcceleration  ETV
vector 157  scenario.node[7].appl  speed  ETV
vector 158  scenario.node[7].appl  posx  ETV
vector 159  scenario.node[7].appl  posy  ETV
vector 168  scenario.node[7].prot  frontDelay  ETV
vector 166  scenario.node[7].prot  frontDelayId  ETV
vector 146  scenario.node[6].prot  frontDelay  ETV
vector 144  scenario.node[6].prot  frontDelayId  ETV
vector 35  scenario.node[1].prot  leaderDelay  ETV
vector 33  scenario.node[1].prot  leaderDelayId  ETV
vector 36  scenario.node[1].prot  frontDelay  ETV
vector 34  scenario.node[1].prot  frontDelayId  ETV
vector 57  scenario.node[2].prot  leaderDelay  ETV
vector 55  scenario.node[2].prot  leaderDelayId  ETV
vector 79  scenario.node[3].prot  leaderDelay  ETV
vector 77  scenario.node[3].prot  leaderDelayId  ETV
vector 101  scenario.node[4].prot  leaderDelay  ETV
vector 99  scenario.node[4].prot  leaderDelayId  ETV
vector 123  scenario.node[5].prot  leaderDelay  ETV
vector 121  scenario.node[5].prot  leaderDelayId  ETV
vector 145  scenario.node[6].prot  leaderDelay  ETV
vector 143  scenario.node[6].prot  leaderDelayId  ETV
vector 167  scenario.node[7].prot  leaderDelay  ETV
vector 165  scenario.node[7].prot  leaderDelayId  ETV
vector 102  scenario.node[4].prot  frontDelay  ETV
vector 100  scenario.node[4].prot  frontDelayId  ETV
vector 80  scenario.node[3].prot  frontDelay  ETV
vector 78  scenario.node[3].prot  frontDelayId  ETV
vector 124  scenario.node[5].prot  frontDelay  ETV
vector 122  scenario.node[5].prot  frontDelayId  ETV
vector 58  scenario.node[2].prot  frontDelay  ETV
vector 56  scenario.node[2].prot  frontDelayId  ETV
vector 8  scenario.node[0].prot  nodeId  ETV
vector 9  scenario.node[0].prot  busyTime  ETV
vector 10  scenario.node[0].prot  collisions  ETV
vector 30  scenario.node[1].prot  nodeId  ETV
vector 31  scenario.node[1].prot  busyTime  ETV
vector 32  scenario.node[1].prot  collisions  ETV
vector 52  scenario.node[2].prot  nodeId  ETV
vector 53  scenario.node[2].prot  busyTime  ETV
vector 54  scenario.node[2].prot  collisions  ETV
vector 74  scenario.node[3].prot  nodeId  ETV
vector 75  scenario.node[3].prot  busyTime  ETV
vector 76  scenario.node[3].prot  collisions  ETV
vector 96  scenario.node[4].prot  nodeId  ETV
vector 97  scenario.node[4].prot  busyTime  ETV
vector 98  scenario.node[4].prot  collisions  ETV
vector 118  scenario.node[5].prot  nodeId  ETV
vector 119  scenario.node[5].prot  busyTime  ETV
vector 120  scenario.node[5].prot  collisions  ETV
vector 140  scenario.node[6].prot  nodeId  ETV
vector 141  scenario.node[6].prot  busyTime  ETV
vector 142  scenario.node[6].prot  collisions  ETV
vector 162  scenario.node[7].prot  nodeId  ETV
vector 163  scenario.node[7].prot  busyTime  ETV
vector 164  scenario.node[7].prot  collisions  ETV
7	11092 13860 232 328174 1.11 59.91 589 -1.5 1.5 -14.445974034379 993.24092368185
6	24952 18594 232 328174 1.11 59.91 589 -1.4722746794938 1.4513434175793 -12.50726914995 675.29835222675
5	43546 12081 232 328174 1.11 59.91 589 36.55 36.55 21527.95 786846.5725
4	55627 17882 232 328174 1.11 59.91 589 176.89330215427 1814.5427676967 587297.6916606 717390288.31548
3	73509 17905 232 328174 1.11 59.91 589 26.487965859734 29.742492528104 16403.83880962 457295.15275867
1	91414 9725 232 328174 1.11 59.91 589 0 0 0 0
0	101139 10314 232 328174 1.11 59.91 589 -1 -1 -589 589
2	111453 9725 232 328174 1.11 59.91 589 0 0 0 0
10	121178 858 5168 328662 2 60 59 0 0 0 0
9	122036 1154 5168 328662 2 60 59 0.023297 0.02625 1.545797 0.040508375209
8	123190 799 5168 328662 2 60 59 0 0 0 0
29	123989 19150 233 328175 1.11 59.91 589 -1.5368749567072 1.5234425498777 -12.72642111925 745.33461566352
28	143139 19234 233 328175 1.11 59.91 589 -1.4452178431764 1.3764990684091 -6.6049427183497 524.27047315107
27	162373 12670 233 328175 1.11 59.91 589 36.55 36.55 21527.95 786846.5725
26	175043 18486 233 328175 1.11 59.91 589 157.00441665649 1795.0639714667 575559.3094829 694235261.35232
25	193529 18504 233 328175 1.11 59.91 589 26.66728148706 29.580025692752 16408.151429871 457443.69127057
23	212033 19536 233 328175 1.11 59.91 589 -0.73571920239486 0.72027334762869 -4.1875475596882 148.41821052398
22	231569 18492 233 328175 1.11 59.91 589 15.28373995548 16.825050439639 9382.4684301004 149560.006238
24	250061 10314 233 328175 1.11 59.91 589 1 1 589 589
36	260375 23661 1034 328420 1.262218056607 59.962214373872 588 0.099999438362 0.100012490387 58.799995776793 5.8799991592489
35	284036 23661 1034 328420 1.262218056607 59.962214373872 588 0.099999438362 0.100012490387 58.799995776793 5.8799991592489
34	307697 16095 1034 328420 1.262218056607 59.962214373872 588 1 1 588 588
33	323792 16095 1034 328420 1.262218056607 59.962214373872 588 1 1 588 588
32	339887 858 5169 328663 2 60 59 0 0 0 0
31	340745 1213 5169 328663 2 60 59 0.023296 0.02625 1.545796 0.040508328616
30	341958 858 5169 328663 2 60 59 1 1 59 59
51	342816 19204 234 328176 1.11 59.91 589 -1.5020342584889 1.4360383085057 -6.1842189165025 569.7958355148
50	362020 19331 234 328176 1.11 59.91 589 -1.3544328657542 1.2376519281013 -0.037537599862958 400.19243620209
49	381351 12670 234 328176 1.11 59.91 589 36.55 36.55 21527.95 786846.5725
48	394021 18500 234 328176 1.11 59.91 589 137.11552352905 1775.2187235136 563820.69169224 671545111.53681
47	412521 18492 234 328176 1.11 59.91 589 26.812089995639 29.451845196496 16408.817679532 457407.40814928
45	431013 19549 234 328176 1.11 59.91 589 -0.68794294559647 0.64296890933483 -0.60020023361135 109.41734325577
44	450562 18502 234 328176 1.11 59.91 589 15.372800946814 16.742023936137 9382.6311156572 149540.83478292
46	469064 10314 234 328176 1.11 59.91 589 2 2 1178 2356
58	479378 23718 1312 328707 1.302597653687 60.002606979006 588 0.099999438507 0.100012505144 58.800008784847 5.8800017610148
57	503096 23697 1040 328426 1.262218122949 59.962214439959 588 0.099999438525 0.100012490524 58.799995776538 5.8799991591979
56	526793 16122 1312 328707 1.302597653687 60.002606979006 588 2 2 1176 2352
55	542915 16109 1040 328426 1.262218122949 59.962214439959 588 2 2 1176 2352
54	559024 858 5170 328664 2 60 59 0 0 0 0
53	559882 1213 5170 328664 2 60 59 0.023297 0.02625 1.545797 0.040508375209
52	561095 858 5170 328664 2 60 59 2 2 118 236
73	561953 19310 235 328177 1.11 59.91 589 -1.4075543973229 1.2908483464121 0.64185296792629 434.88655466237
72	581263 19408 235 328177 1.11 59.91 589 -1.2452156684233 1.0915562624142 4.9285819707784 307.81623912401
71	600671 12670 235 328177 1.11 59.91 589 36.55 36.55 21527.95 786846.5725
70	613341 18491 235 328177 1.11 59.91 589 117.22663040161 1755.0990613431 552082.90722763 649325137.79242
69	631832 18496 235 328177 1.11 59.91 589 26.927766088293 29.350259611425 16406.680930714 457232.45783836
67	650328 19581 235 328177 1.11 59.91 589 -0.63471140106817 0.57024563833606 2.1371241939869 83.993746987125
66	669909 18479 235 328177 1.11 59.91 589 15.435378352126 16.687587534493 9381.7417296276 149496.67820688
68	688388 10314 235 328177 1.11 59.91 589 3 3 1767 5301
80	698702 23681 1176 328562 1.287874321976 59.987883640997 588 0.099999438641 0.100012504572 58.800008778549 5.8800017597552
79	722383 23678 1046 328432 1.262218189292 59.962214506988 588 0.099999438568 0.100012490684 58.799995777224 5.8799991593351
78	746061 16102 1176 328562 1.287874321976 59.987883640997 588 3 3 1764 5292
77	762163 16097 1046 328432 1.262218189292 59.962214506988 588 3 3 1764 5292
76	778260 858 5171 328665 2 60 59 0 0 0 0
75	779118 1213 5171 328665 2 60 59 0.023297 0.02625 1.545797 0.040508375209
74	780331 858 5171 328665 2 60 59 3 3 177 531
95	781189 19494 236 328178 1.11 59.91 589 -1.2975793191323 1.1407043460553 3.4426032736855 221.96075694837
94	800683 19569 236 328178 1.11 59.91 589 -1.1384637032304 0.95754442873961 0.49787798032703 159.60398302014
93	820252 12670 236 328178 1.11 59.91 589 36.55 36.55 21527.95 786846.5725
92	832922 18504 236 328178 1.11 59.91 589 97.337744903564 1734.2944145099 540349.73856494 627587715.66436
91	851426 18493 236 328178 1.11 59.91 589 27.027084352234 29.265443402793 16397.357477449 456621.97023865
89	869919 19406 236 328178 1.11 59.91 589 -1.3177128683202 1.3517264584224 9.2741674450848 257.70851394723
88	889325 18506 236 328178 1.11 59.91 589 14.832818278356 17.154311068711 9376.9821936278 149459.53616245
90	907831 10314 236 328178 1.11 59.91 589 4 4 2356 9424
102	918145 24252 1108 328494 1.276580255634 59.976589576473 588 0.099999438325 0.10001250519 58.800008780367 5.8800017601188
101	942397 24297 1052 328438 1.262218255634 59.96221457646 588 0.099999438323 0.100012490815 58.799995780354 5.8799991599611
100	966694 16677 1108 328494 1.276580255634 59.976589576473 588 4 4 2352 9408
99	983371 16115 1052 328438 1.262218255634 59.96221457646 588 4 4 2352 9408
98	999486 858 5172 328666 2 60 59 0 0 0 0
97	1000344 1213 5172 328666 2 60 59 0.023297 0.02625 1.545797 0.040508375209
96	1001557 858 5172 328666 2 60 59 4 4 236 944
117	1002415 20143 237 328179 1.11 59.91 589 -1.1848236165378 1.0008562485676 0.1868475996983 173.67536466434
116	1022558 20188 237 328179 1.11 59.91 589 -1.0372260251994 0.83953174382358 -2.0670537874818 125.35206678324
115	1042746 13259 237 328179 1.11 59.91 589 36.55 36.55 21527.95 786846.5725
114	1056005 19073 237 328179 1.11 59.91 589 77.44885559082 1714.4993089549 528616.83645183 606318947.88763
113	1075078 19086 237 328179 1.11 59.91 589 27.114934180159 29.191266362526 16398.206615647 456647.12706626
111	1094164 20231 237 328179 1.11 59.91 589 -0.53004516465031 0.43919844468824 -0.85411697777248 33.977296570757
110	1114395 19081 237 328179 1.11 59.91 589 15.535579976911 16.603694887217 9376.9190958717 149310.85013304
112	1133476 10903 237 328179 1.11 59.91 589 5 5 2945 14725
124	1144379 24265 1244 328624 1.29750445466 59.997513776593 588 0.099999438321 0.100012502839 58.800008781461 5.8800017603376
123	1168644 24264 1058 328444 1.262218321976 59.962214642532 588 0.099999438245 0.1000124909 58.799995780084 5.8799991599071
122	1192908 16694 1244 328624 1.29750445466 59.997513776593 588 5 5 2940 14700
121	1209602 16697 1058 328444 1.262218321976 59.962214642532 588 5 5 2940 14700
120	1226299 917 5173 328667 2 60 59 0 0 0 0
119	1227216 1272 5173 328667 2 60 59 0.023297 0.02625 1.545797 0.040508375209
118	1228488 917 5173 328667 2 60 59 5 5 295 1475
139	1229405 20188 238 328180 1.11 59.91 589 -1.0795227363995 0.8746783502935 -2.3941541717503 135.80925499416
138	1249593 20195 238 328180 1.11 59.91 589 -0.94671691494348 0.73617650503337 -3.3343656376317 99.180940668036
137	1269788 13259 238 328180 1.11 59.91 589 36.55 36.55 21527.95 786846.5725
136	1283047 19085 238 328180 1.11 59.91 589 57.559966278076 1694.7810324955 516883.12806178 585514360.6984
135	1302132 19080 238 328180 1.11 59.91 589 27.193749004454 29.1255287934 16399.87037572 456721.63755735
133	1321212 20249 238 328180 1.11 59.91 589 -0.48340273987375 0.38508779906904 -1.6430895348458 26.804013730529
132	1341461 19095 238 328180 1.11 59.91 589 15.577627991628 16.569507350909 9377.7416652569 149331.96257871
134	1360556 10903 238 328180 1.11 59.91 589 6 6 3534 21204
146	1371459 24285 970 328350 1.247595724896 59.947592041175 588 0.099999437909 0.100012499613 58.799995775807 5.8799991590516
145	1395744 24278 1064 328450 1.262218388318 59.962214708326 588 0.099999438171 0.100012490946 58.799995779536 5.8799991597975
144	1420022 16702 970 328350 1.247595724896 59.947592041175 588 6 6 3528 21168
143	1436724 16694 1064 328450 1.262218388318 59.962214708326 588 6 6 3528 21168
142	1453418 917 5174 328668 2 60 59 0 0 0 0
141	1454335 1272 5174 328668 2 60 59 0.023297 0.02625 1.545797 0.040508375209
140	1455607 917 5174 328668 2 60 59 6 6 354 2124
161	1456524 20192 239 328181 1.11 59.91 589 -0.98715402773714 0.76851089668374 -3.5791622742361 107.904390541
160	1476716 20216 239 328181 1.11 59.91 589 -0.86778448961304 0.64727610547486 -3.1593578675139 79.309746217071
159	1496932 13259 239 328181 1.11 59.91 589 36.55 36.55 21527.95 786846.5725
158	1510191 19102 239 328181 1.11 59.91 589 37.671077919006 1675.0626795039 505148.5072913 565173667.0911
157	1529293 19071 239 328181 1.11 59.91 589 27.229779134353 29.066699009311 16401.583886756 456802.56754104
155	1548364 20245 239 328181 1.11 59.91 589 -0.44267533879714 0.33851101249791 -1.6801673797658 21.382115251357
154	1568609 19087 239 328181 1.11 59.91 589 15.605400632735 16.538805564327 9378.6550406969 149356.97221511
156	1587696 10903 239 328181 1.11 59.91 589 7 7 4123 28861
168	1598599 24308 832 328218 1.21213752587 59.91213384384 588 0.099999438109 0.10001250173 58.799995777498 5.87999915939
167	1622907 24280 1070 328456 1.26221845466 59.962214774096 588 0.099999438124 0.100012490968 58.799995778964 5.8799991596831
166	1647187 16720 832 328218 1.21213752587 59.91213384384 588 7 7 4116 28812
165	1663907 16696 1070 328456 1.26221845466 59.962214774096 588 7 7 4116 28812
164	1680603 917 5175 328669 2 60 59 0 0 0 0
163	1681520 1272 5175 328669 2 60 59 0.023297 0.02625 1.545797 0.040508375209
162	1682792 917 5175 328669 2 60 59 7 7 413 2891
