file 916655 1512144301                                          
version 2
run SinusoidalAccInjectionAttack-271-20171201-17:04:43-83400
attr CACCSpacing 20
attr attackAcc 30
attr attackPos 7
attr attackSpeed 150
attr attackStart 30
attr attacker 4
attr beaconInterval 0.1
attr configname SinusoidalAccInjectionAttack
attr controller 2
attr datetime 20171201-17:04:43
attr experiment SinusoidalAccInjectionAttack
attr fakeAcc "(4 == 4)"
attr fakePos "(4 == 2)"
attr fakeSpeed "(4 == 3)"
attr inifile omnetpp_271.ini
attr iterationvars "$attacker=4, $attackSpeed=150, $attackPos=7, $attackAcc=30, $leaderSpeed=100, $controller=2, $CACCSpacing=20, $sController=\"PLOEG\", $attackStart=30, $0=2, $1=0.5, $nCars=8, $platoonSize=8, $nLanes=1, $beaconInterval=0.1, $priority=2, $packetSize=200, $ploegH=0.5, $leaderHeadway=1.2, $fakeSpeed=(4 == 3), $fakeAcc=(4 == 4), $fakePos=(4 == 2)"
attr iterationvarsf attacker=4,attackSpeed=150,attackPos=7,attackAcc=30,leaderSpeed=100,controller=2,CACCSpacing=20,sController=PLOEG,attackStart=30,2,0.5,nCars=8,platoonSize=8,nLanes=1,beaconInterval=0.1,priority=2,packetSize=200,ploegH=0.5,leaderHeadway=1.2,fakeSpeed=(4_==_3),fakeAcc=(4_==_4),fakePos=(4_==_2)-
attr leaderHeadway 1.2
attr leaderSpeed 100
attr measurement "$attacker=4, $attackSpeed=150, $attackPos=7, $attackAcc=30, $leaderSpeed=100, $controller=2, $CACCSpacing=20, $sController=\"PLOEG\", $attackStart=30, $0=2, $1=0.5, $nCars=8, $platoonSize=8, $nLanes=1, $beaconInterval=0.1, $priority=2, $packetSize=200, $ploegH=0.5, $leaderHeadway=1.2, $fakeSpeed=(4 == 3), $fakeAcc=(4 == 4), $fakePos=(4 == 2)"
attr nCars 8
attr nLanes 1
attr network scenario
attr packetSize 200
attr platoonSize 8
attr ploegH 0.5
attr priority 2
attr processid 83400
attr repetition 1
attr replication #1
attr resultdir results
attr runnumber 271
attr sController "\"PLOEG\""
attr seedset 1
param **.coreDebug false
param **.debug false
param **.headway 0.1s
param **.numberOfCars 8
param **.numberOfCarsPerPlatoon 8
param **.numberOfLanes 1
param **.numericController 2
param **.traffic.nCars 8
param **.traffic.nLanes 1
param **.traffic.platoonInsertDistance 2m
param **.traffic.platoonInsertHeadway 0.5s
param **.traffic.platoonInsertSpeed 100kmph
param **.traffic.platoonInsertTime "1 s"
param **.traffic.platoonLeaderHeadway 1.2s
param **.traffic.platoonSize 8
param **.traffic.platooningVType "\"vtypeauto\""
param **.traffic_type "\"PlatoonsTrafficManager\""
param *.**.nic.mac1609_4.bitrate 6Mbps
param *.**.nic.mac1609_4.txPower 100mW
param *.**.nic.mac1609_4.useServiceChannel false
param *.**.nic.phy80211p.analogueModels "xmldoc(\"config.xml\")"
param *.**.nic.phy80211p.decider "xmldoc(\"config.xml\")"
param *.**.nic.phy80211p.maxTXPower 100mW
param *.**.nic.phy80211p.sensitivity -94dBm
param *.**.nic.phy80211p.thermalNoise -95dBm
param *.**.nic.phy80211p.usePropagationDelay true
param *.**.nic.phy80211p.useThermalNoise true
param *.annotations.draw false
param *.connectionManager.alpha 2.0
param *.connectionManager.carrierFrequency "5.890e9 Hz"
param *.connectionManager.pMax 100mW
param *.connectionManager.sat -94dBm
param *.connectionManager.sendDirect true
param *.manager.autoShutdown true
param *.manager.commandLine "\"sumo --remote-port $port --seed $seed --configuration-file $configFile\""
param *.manager.configFile "\"./sumocfg/freeway.sumo.cfg\""
param *.manager.host "\"localhost\""
param *.manager.margin 25
param *.manager.moduleDisplayString "\"\""
param *.manager.moduleName "\"node\""
param *.manager.moduleType "\"Car\""
param *.manager.updateInterval 0.01s
param *.node[*].appl.attackStart 30s
param *.node[*].appl.attackerType 4
param *.node[*].appl.simulationDuration "60 s"
param *.node[*].appl_type "\"SimplePlatooningApp\""
param *.node[*].helper.nCars 8
param *.node[*].helper.nLanes 1
param *.node[*].helper.platoonSize 8
param *.node[*].helper_type "\"PositionHelper\""
param *.node[*].mobility.x 0
param *.node[*].mobility.y 0
param *.node[*].mobility.z 1.895
param *.node[*].prot.attackStart 30s
param *.node[*].prot.attackerType 4
param *.node[*].prot.attackingNode 3
param *.node[*].prot.beaconingInterval 0.1s
param *.node[*].prot.fakeAcc "(4 == 4)"
param *.node[*].prot.fakePos "(4 == 2)"
param *.node[*].prot.fakeSpeed "(4 == 3)"
param *.node[*].prot.maliciousAcc "30 mpss"
param *.node[*].prot.maliciousSpeed 150kmph
param *.node[*].prot.packetSize 200
param *.node[*].prot.priority 2
param *.node[*].prot.shiftX "7 m"
param *.node[*].prot.useControllerAcceleration true
param *.node[*].protocol_type "\"SimplePlatooningBeaconing\""
param *.node[*].scenario.accHeadway 0.1s
param *.node[*].scenario.caccC1 0.5
param *.node[*].scenario.caccOmegaN "0.2 Hz"
param *.node[*].scenario.caccSpacing 20m
param *.node[*].scenario.caccXi 1
param *.node[*].scenario.controller "\"PLOEG\""
param *.node[*].scenario.engineTau "0.5 s"
param *.node[*].scenario.leaderHeadway 1.2s
param *.node[*].scenario.leaderSpeed 100kmph
param *.node[*].scenario.ploegH 0.5s
param *.node[*].scenario.ploegKd 0.7
param *.node[*].scenario.ploegKp 0.2
param *.node[*].scenario.useRealisticEngine false
param *.node[*].scenario_type "\"SinusoidalScenario\""
param *.node[*].unicast.packetLossRate 0
param *.obstacles.debug false
param *.playgroundSizeX 65000m
param *.playgroundSizeY 25000m
param *.playgroundSizeZ 50m
param *.world.use2D false
param *.world.useTorus false

vector 0  scenario.node[0].appl  distance  ETV
vector 1  scenario.node[0].appl  relativeSpeed  ETV
vector 2  scenario.node[0].appl  nodeId  ETV
vector 6  scenario.node[0].appl  acceleration  ETV
vector 7  scenario.node[0].appl  controllerAcceleration  ETV
vector 3  scenario.node[0].appl  speed  ETV
vector 4  scenario.node[0].appl  posx  ETV
vector 5  scenario.node[0].appl  posy  ETV
vector 22  scenario.node[1].appl  distance  ETV
vector 23  scenario.node[1].appl  relativeSpeed  ETV
vector 24  scenario.node[1].appl  nodeId  ETV
vector 28  scenario.node[1].appl  acceleration  ETV
vector 29  scenario.node[1].appl  controllerAcceleration  ETV
vector 25  scenario.node[1].appl  speed  ETV
vector 26  scenario.node[1].appl  posx  ETV
vector 27  scenario.node[1].appl  posy  ETV
vector 44  scenario.node[2].appl  distance  ETV
vector 45  scenario.node[2].appl  relativeSpeed  ETV
vector 46  scenario.node[2].appl  nodeId  ETV
vector 50  scenario.node[2].appl  acceleration  ETV
vector 51  scenario.node[2].appl  controllerAcceleration  ETV
vector 47  scenario.node[2].appl  speed  ETV
vector 48  scenario.node[2].appl  posx  ETV
vector 49  scenario.node[2].appl  posy  ETV
vector 66  scenario.node[3].appl  distance  ETV
vector 67  scenario.node[3].appl  relativeSpeed  ETV
vector 68  scenario.node[3].appl  nodeId  ETV
vector 72  scenario.node[3].appl  acceleration  ETV
vector 73  scenario.node[3].appl  controllerAcceleration  ETV
vector 69  scenario.node[3].appl  speed  ETV
vector 70  scenario.node[3].appl  posx  ETV
vector 71  scenario.node[3].appl  posy  ETV
vector 88  scenario.node[4].appl  distance  ETV
vector 89  scenario.node[4].appl  relativeSpeed  ETV
vector 90  scenario.node[4].appl  nodeId  ETV
vector 94  scenario.node[4].appl  acceleration  ETV
vector 95  scenario.node[4].appl  controllerAcceleration  ETV
vector 91  scenario.node[4].appl  speed  ETV
vector 92  scenario.node[4].appl  posx  ETV
vector 93  scenario.node[4].appl  posy  ETV
vector 110  scenario.node[5].appl  distance  ETV
vector 111  scenario.node[5].appl  relativeSpeed  ETV
vector 112  scenario.node[5].appl  nodeId  ETV
vector 116  scenario.node[5].appl  acceleration  ETV
vector 117  scenario.node[5].appl  controllerAcceleration  ETV
vector 113  scenario.node[5].appl  speed  ETV
vector 114  scenario.node[5].appl  posx  ETV
vector 115  scenario.node[5].appl  posy  ETV
vector 132  scenario.node[6].appl  distance  ETV
vector 133  scenario.node[6].appl  relativeSpeed  ETV
vector 134  scenario.node[6].appl  nodeId  ETV
vector 138  scenario.node[6].appl  acceleration  ETV
vector 139  scenario.node[6].appl  controllerAcceleration  ETV
vector 135  scenario.node[6].appl  speed  ETV
vector 136  scenario.node[6].appl  posx  ETV
vector 137  scenario.node[6].appl  posy  ETV
vector 154  scenario.node[7].appl  distance  ETV
vector 155  scenario.node[7].appl  relativeSpeed  ETV
vector 156  scenario.node[7].appl  nodeId  ETV
vector 160  scenario.node[7].appl  acceleration  ETV
vector 161  scenario.node[7].appl  controllerAcceleration  ETV
vector 157  scenario.node[7].appl  speed  ETV
vector 158  scenario.node[7].appl  posx  ETV
vector 159  scenario.node[7].appl  posy  ETV
vector 58  scenario.node[2].prot  frontDelay  ETV
vector 56  scenario.node[2].prot  frontDelayId  ETV
vector 102  scenario.node[4].prot  frontDelay  ETV
vector 100  scenario.node[4].prot  frontDelayId  ETV
vector 146  scenario.node[6].prot  frontDelay  ETV
vector 144  scenario.node[6].prot  frontDelayId  ETV
vector 168  scenario.node[7].prot  frontDelay  ETV
vector 166  scenario.node[7].prot  frontDelayId  ETV
vector 124  scenario.node[5].prot  frontDelay  ETV
vector 122  scenario.node[5].prot  frontDelayId  ETV
vector 35  scenario.node[1].prot  leaderDelay  ETV
vector 33  scenario.node[1].prot  leaderDelayId  ETV
vector 36  scenario.node[1].prot  frontDelay  ETV
vector 34  scenario.node[1].prot  frontDelayId  ETV
vector 57  scenario.node[2].prot  leaderDelay  ETV
vector 55  scenario.node[2].prot  leaderDelayId  ETV
vector 79  scenario.node[3].prot  leaderDelay  ETV
vector 77  scenario.node[3].prot  leaderDelayId  ETV
vector 101  scenario.node[4].prot  leaderDelay  ETV
vector 99  scenario.node[4].prot  leaderDelayId  ETV
vector 123  scenario.node[5].prot  leaderDelay  ETV
vector 121  scenario.node[5].prot  leaderDelayId  ETV
vector 145  scenario.node[6].prot  leaderDelay  ETV
vector 143  scenario.node[6].prot  leaderDelayId  ETV
vector 167  scenario.node[7].prot  leaderDelay  ETV
vector 165  scenario.node[7].prot  leaderDelayId  ETV
vector 80  scenario.node[3].prot  frontDelay  ETV
vector 78  scenario.node[3].prot  frontDelayId  ETV
vector 8  scenario.node[0].prot  nodeId  ETV
vector 9  scenario.node[0].prot  busyTime  ETV
vector 10  scenario.node[0].prot  collisions  ETV
vector 30  scenario.node[1].prot  nodeId  ETV
vector 31  scenario.node[1].prot  busyTime  ETV
vector 32  scenario.node[1].prot  collisions  ETV
vector 52  scenario.node[2].prot  nodeId  ETV
vector 53  scenario.node[2].prot  busyTime  ETV
vector 54  scenario.node[2].prot  collisions  ETV
vector 74  scenario.node[3].prot  nodeId  ETV
vector 75  scenario.node[3].prot  busyTime  ETV
vector 76  scenario.node[3].prot  collisions  ETV
vector 96  scenario.node[4].prot  nodeId  ETV
vector 97  scenario.node[4].prot  busyTime  ETV
vector 98  scenario.node[4].prot  collisions  ETV
vector 118  scenario.node[5].prot  nodeId  ETV
vector 119  scenario.node[5].prot  busyTime  ETV
vector 120  scenario.node[5].prot  collisions  ETV
vector 140  scenario.node[6].prot  nodeId  ETV
vector 141  scenario.node[6].prot  busyTime  ETV
vector 142  scenario.node[6].prot  collisions  ETV
vector 162  scenario.node[7].prot  nodeId  ETV
vector 163  scenario.node[7].prot  busyTime  ETV
vector 164  scenario.node[7].prot  collisions  ETV
7	11095 7692 232 179804 1.11 33.31 323 -1.5 1.5 1.7460186867345 511.80984025099
6	18787 10138 232 179804 1.11 33.31 323 -1.4722746794938 1.451340770512 7.7170181382108 339.99454586334
5	28925 6495 232 179804 1.11 33.31 323 36.55 36.55 11805.65 431496.5075
4	35420 9685 232 179804 1.11 33.31 323 174.60539932224 1073.7610101837 201865.16539606 148011092.86331
3	45105 9690 232 179804 1.11 33.31 323 26.488037261118 29.742492528104 9019.6124573367 252107.52928637
1	54795 5203 232 179804 1.11 33.31 323 0 0 0 0
0	59998 5526 232 179804 1.11 33.31 323 -1 -1 -323 323
2	65524 5203 232 179804 1.11 33.31 323 0 0 0 0
10	70727 453 5168 178056 2 33 32 0 0 0 0
9	71180 614 5168 178056 2 33 32 0.023297 0.02625 0.837047 0.021903687709
8	71794 421 5168 178056 2 33 32 0 0 0 0
29	72215 10438 233 179805 1.11 33.31 323 -1.5589916558856 1.5498323626535 9.4173920987871 386.66038186907
28	82653 10491 233 179805 1.11 33.31 323 -1.4671855790706 1.3997965497367 11.002871035497 271.94435791051
27	93144 6818 233 179805 1.11 33.31 323 36.55 36.55 11805.65 431496.5075
26	99962 10010 233 179805 1.11 33.31 323 154.71650619507 1053.2819158403 195417.72293004 140089333.40885
25	109972 10013 233 179805 1.11 33.31 323 26.648938124203 29.59432120793 9013.8192008786 251741.87750972
23	119985 10662 233 179805 1.11 33.31 323 -0.76538756415643 0.75597837712536 5.7160862766773 82.184280390424
22	130647 10013 233 179805 1.11 33.31 323 15.250286730429 16.862788430847 5155.3266008872 82343.936896916
24	140660 5526 233 179805 1.11 33.31 323 1 1 323 323
36	146186 12842 1238 180254 1.297802990264 33.397801322084 322 0.099999016979 0.100012092396 32.199997393294 3.2199994822685
35	159028 12842 1238 180254 1.297802990264 33.397801322084 322 0.099999016979 0.100012092396 32.199997393294 3.2199994822685
34	171870 8696 1238 180254 1.297802990264 33.397801322084 322 1 1 322 322
33	180566 8696 1238 180254 1.297802990264 33.397801322084 322 1 1 322 322
32	189262 453 5169 178057 2 33 32 0 0 0 0
31	189715 646 5169 178057 2 33 32 0.023297 0.02625 0.837047 0.021903687709
30	190361 453 5169 178057 2 33 32 1 1 32 32
51	190814 10448 234 179806 1.11 33.31 323 -1.5234275127747 1.4627929346364 11.655496303666 296.06994824888
50	201262 10479 234 179806 1.11 33.31 323 -1.3731569640921 1.2582301977424 8.9774985496909 212.15790923145
49	211741 6818 234 179806 1.11 33.31 323 36.55 36.55 11805.65 431496.5075
48	218559 10005 234 179806 1.11 33.31 323 134.82761306763 1032.8971428036 188974.89740526 132432142.88857
47	228564 10012 234 179806 1.11 33.31 323 26.792851100726 29.465996935042 9008.783144788 251419.4285889
45	238576 10658 234 179806 1.11 33.31 323 -0.69754178880244 0.65524132642864 4.9260273802639 57.643550582523
44	249234 10007 234 179806 1.11 33.31 323 15.362710862912 16.74893533622 5150.724803664 82179.342297125
46	259241 5526 234 179806 1.11 33.31 323 2 2 646 1292
58	264767 12854 832 179842 1.212436127816 33.31243450907 322 0.099999020677 0.100012091929 32.199997442728 3.2199994921551
57	277621 12848 1244 180260 1.297803056606 33.397801390132 322 0.099999017046 0.100012092292 32.199997395 3.2199994826097
56	290469 8694 832 179842 1.212436127816 33.31243450907 322 2 2 644 1288
55	299163 8695 1244 180260 1.297803056606 33.397801390132 322 2 2 644 1288
54	307858 453 5170 178058 2 33 32 0 0 0 0
53	308311 646 5170 178058 2 33 32 0.023296 0.02625 0.837046 0.021903641116
52	308957 453 5170 178058 2 33 32 2 2 64 128
73	309410 10499 235 179807 1.11 33.31 323 -1.4327596870974 1.318971001951 9.0649995788159 231.73873355749
72	319909 10530 235 179807 1.11 33.31 323 -1.2644132254312 1.1141242927788 4.1186095422368 164.21922946443
71	330439 6818 235 179807 1.11 33.31 323 36.55 36.55 11805.65 431496.5075
70	337257 9989 235 179807 1.11 33.31 323 114.93872756958 1012.7543090333 182533.78292427 125034978.94273
69	347246 10014 235 179807 1.11 33.31 323 26.910412079879 29.364128657142 9006.0702653844 251238.32997444
67	357260 10635 235 179807 1.11 33.31 323 -0.644985978782 0.58164259203378 2.6231044180981 44.73107082031
66	367895 10015 235 179807 1.11 33.31 323 15.426223764697 16.694472043767 5149.060223394 82117.692838498
68	377910 5526 235 179807 1.11 33.31 323 3 3 969 2907
80	383436 12804 1312 179766 1.307225122948 33.307224440258 321 0.099999020668 0.100012087913 32.099998378784 3.209999679365
79	396240 12859 1250 180266 1.297803122949 33.397801457449 322 0.099999017208 0.100012092303 32.199997395974 3.2199994828045
78	409099 8667 1312 179766 1.307225122948 33.307224440258 321 3 3 963 2889
77	417766 8704 1250 180266 1.297803122949 33.397801457449 322 3 3 966 2898
76	426470 453 5171 178059 2 33 32 0 0 0 0
75	426923 646 5171 178059 2 33 32 0.023297 0.02625 0.837047 0.021903687709
74	427569 453 5171 178059 2 33 32 3 3 96 288
117	428022 10888 237 179809 1.11 33.31 323 -1.1995100176574 23.006375606059 572.86448302065 11663.829613766
116	438910 10926 237 179809 1.11 33.31 323 -1.051192615575 2.4999999999999 79.18710085885 263.27883571041
115	449836 7141 237 179809 1.11 33.31 323 36.55 36.55 11805.65 431496.5075
114	456977 10343 237 179809 1.11 33.31 323 75.160948944092 985.98332812956 169781.43660498 111258940.92241
113	467320 10345 237 179809 1.11 33.31 323 27.103801512394 35.579521917335 9138.752544866 259225.93440637
111	477665 10958 237 179809 1.11 33.31 323 -0.53713309816214 0.58380099405901 21.030023908788 33.208086309391
110	488623 10338 237 179809 1.11 33.31 323 15.529870603082 18.043587435006 5191.1325740975 83498.130797571
112	498961 5849 237 179809 1.11 33.31 323 5 5 1615 8075
124	504810 13182 1178 180194 1.297389724895 33.397388110451 322 0.099999019878 0.100012089195 32.19999744703 3.2199994930151
123	517992 13179 1262 180278 1.297803255633 33.397801544741 322 0.099999014706 0.100012092523 32.199997350582 3.2199994737261
122	531171 9031 1178 180194 1.297389724895 33.397388110451 322 5 5 1610 8050
121	540202 9025 1262 180278 1.297803255633 33.397801544741 322 5 5 1610 8050
120	549227 485 5173 178061 2 33 32 0 0 0 0
119	549712 678 5173 178061 2 33 32 0.023297 0.02625 0.837047 0.021903687709
118	550390 485 5173 178061 2 33 32 5 5 160 800
139	550875 10912 238 179810 1.11 33.31 323 -1.092388826713 21.726713765737 445.62567439182 8090.2049948441
138	561787 10948 238 179810 1.11 33.31 323 -0.95900149885892 2.4999999999999 71.412533146765 226.56823192249
137	572735 7141 238 179810 1.11 33.31 323 36.55 36.55 11805.65 431496.5075
136	579876 10332 238 179810 1.11 33.31 323 55.272061538696 963.68356746188 163298.9953415 104548428.00434
135	590208 10341 238 179810 1.11 33.31 323 27.183901970724 34.809332044472 9114.3744464875 257683.65489274
133	600549 10964 238 179810 1.11 33.31 323 -0.48977949576948 0.74518987286283 23.586227369888 33.241200215346
132	611513 10335 238 179810 1.11 33.31 323 15.572529282368 18.284356870222 5189.9537015205 83462.445072564
134	621848 5849 238 179810 1.11 33.31 323 6 6 1938 11628
146	627697 13176 970 179986 1.248713393184 33.348711739519 322 0.099999018634 0.100012089793 32.199997407809 3.219999485171
145	640873 13154 1268 180284 1.297803321975 33.39780161933 322 0.099999014962 0.100012092637 32.199997358829 3.2199994753755
144	654027 9019 970 179986 1.248713393184 33.348711739519 322 6 6 1932 11592
143	663046 9011 1268 180284 1.297803321975 33.39780161933 322 6 6 1932 11592
142	672057 485 5174 178062 2 33 32 0 0 0 0
141	672542 678 5174 178062 2 33 32 0.023297 0.02625 0.837047 0.021903687709
140	673220 485 5174 178062 2 33 32 6 6 192 1152
161	673705 10953 239 179811 1.11 33.31 323 -0.99894005315076 20.43052939517 326.88986391291 5071.4468414144
160	684658 10987 239 179811 1.11 33.31 323 -0.87860805216273 2.4999999999999 62.744071448966 192.81025763391
159	695645 7141 239 179811 1.11 33.31 323 36.55 36.55 11805.65 431496.5075
158	702786 10327 239 179811 1.11 33.31 323 35.383171749115 941.42403604657 156822.22915239 98107718.09528
157	713113 10354 239 179811 1.11 33.31 323 27.25416327872 33.939872602227 9090.3632411764 256182.76168925
155	723467 11005 239 179811 1.11 33.31 323 -0.44817238972285 0.8444594422444 23.297079979682 31.575089094081
154	734472 10328 239 179811 1.11 33.31 323 15.609889146347 18.242142226465 5184.2859649981 83270.039782919
156	744800 5849 239 179811 1.11 33.31 323 7 7 2261 15827
168	750649 13176 1040 180050 1.263894459526 33.363892813914 322 0.099999018924 0.100012088882 32.199997415862 3.2199994867816
167	763825 13173 1274 180290 1.297803388317 33.397801693812 322 0.099999015252 0.100012092721 32.199997366969 3.2199994770035
166	776998 9016 1040 180050 1.263894459526 33.363892813914 322 7 7 2254 15778
165	786014 9017 1274 180290 1.297803388317 33.397801693812 322 7 7 2254 15778
164	795031 485 5175 178063 2 33 32 0 0 0 0
163	795516 678 5175 178063 2 33 32 0.023297 0.02625 0.837047 0.021903687709
162	796194 485 5175 178063 2 33 32 7 7 224 1568
88	796679 10023 236 180293 1.11 33.4 324 0 16.648727998279 4979.8673907814 78416.528740099
89	806702 10650 236 180293 1.11 33.4 324 -8.2054150703741 0.50992339326151 -162.81221888573 1045.6311612419
90	817352 5543 236 180293 1.11 33.4 324 4 4 1296 5184
91	822895 10055 236 180293 1.11 33.4 324 27.013517672588 36.413322911394 9197.0492060157 261949.00557001
92	832950 10054 236 180293 1.11 33.4 324 95.049842071533 1011.3095406465 177276.31638649 119253756.93169
93	843004 6839 236 180293 1.11 33.4 324 36.55 36.55 11842.2 432832.41
94	849843 10614 236 180293 1.11 33.4 324 -1.1539417490219 2.4999999999999 87.83143295664 309.63671894419
95	860457 10555 236 180293 1.11 33.4 324 -1.3157131693207 24.743380254433 727.12498921225 16285.953879031
96	871012 453 5172 178060 2 33 32 4 4 128 512
97	871465 646 5172 178060 2 33 32 0.023297 0.02625 0.837047 0.021903687709
98	872111 453 5172 178060 2 33 32 0 0 0 0
99	872564 8703 1256 180272 1.297803189291 33.397801471008 322 4 4 1288 5152
100	881267 9020 902 179912 1.2350402605 33.335038591448 322 4 4 1288 5152
101	890287 13192 1256 180272 1.297803189291 33.397801471008 322 0.099999014502 0.100012092397 32.199997343191 3.2199994722479
102	903479 13176 902 179912 1.2350402605 33.335038591448 322 0.099999018174 0.100012091987 32.199997392422 3.2199994820939
