version 2
run SinusoidalAccInjectionAttack-33-20170802-20:12:09-72364
attr CACCSpacing 20
attr attackAcc -30
attr attackPos 7
attr attackSpeed 150
attr attackStart 30
attr attacker 4
attr beaconInterval 0.1
attr configname SinusoidalAccInjectionAttack
attr controller 2
attr datetime 20170802-20:12:09
attr experiment SinusoidalAccInjectionAttack
attr fakeAcc "(4 == 4)"
attr fakePos "(4 == 2)"
attr fakeSpeed "(4 == 3)"
attr inifile omnetpp_33.ini
attr iterationvars "$attacker=4, $attackSpeed=150, $attackPos=7, $attackAcc=-30, $leaderSpeed=100, $controller=2, $CACCSpacing=20, $sController=\"PLOEG\", $attackStart=30, $0=2, $1=0.5, $nCars=8, $platoonSize=8, $nLanes=1, $beaconInterval=0.1, $priority=2, $packetSize=200, $ploegH=0.5, $leaderHeadway=1.2, $fakeSpeed=(4 == 3), $fakeAcc=(4 == 4), $fakePos=(4 == 2)"
attr iterationvarsf attacker=4,attackSpeed=150,attackPos=7,attackAcc=-30,leaderSpeed=100,controller=2,CACCSpacing=20,sController=PLOEG,attackStart=30,2,0.5,nCars=8,platoonSize=8,nLanes=1,beaconInterval=0.1,priority=2,packetSize=200,ploegH=0.5,leaderHeadway=1.2,fakeSpeed=(4_==_3),fakeAcc=(4_==_4),fakePos=(4_==_2)-
attr leaderHeadway 1.2
attr leaderSpeed 100
attr measurement "$attacker=4, $attackSpeed=150, $attackPos=7, $attackAcc=-30, $leaderSpeed=100, $controller=2, $CACCSpacing=20, $sController=\"PLOEG\", $attackStart=30, $0=2, $1=0.5, $nCars=8, $platoonSize=8, $nLanes=1, $beaconInterval=0.1, $priority=2, $packetSize=200, $ploegH=0.5, $leaderHeadway=1.2, $fakeSpeed=(4 == 3), $fakeAcc=(4 == 4), $fakePos=(4 == 2)"
attr nCars 8
attr nLanes 1
attr network scenario
attr packetSize 200
attr platoonSize 8
attr ploegH 0.5
attr priority 2
attr processid 72364
attr repetition 3
attr replication #3
attr resultdir results
attr runnumber 33
attr sController "\"PLOEG\""
attr seedset 3
param **.coreDebug false
param **.debug false
param **.headway 0.1s
param **.numberOfCars 8
param **.numberOfCarsPerPlatoon 8
param **.numberOfLanes 1
param **.numericController 2
param **.traffic.nCars 8
param **.traffic.nLanes 1
param **.traffic.platoonInsertDistance 2m
param **.traffic.platoonInsertHeadway 0.5s
param **.traffic.platoonInsertSpeed 100kmph
param **.traffic.platoonInsertTime "1 s"
param **.traffic.platoonLeaderHeadway 1.2s
param **.traffic.platoonSize 8
param **.traffic.platooningVType "\"vtypeauto\""
param **.traffic_type "\"PlatoonsTrafficManager\""
param *.**.nic.mac1609_4.bitrate 6Mbps
param *.**.nic.mac1609_4.txPower 100mW
param *.**.nic.mac1609_4.useServiceChannel false
param *.**.nic.phy80211p.analogueModels "xmldoc(\"config.xml\")"
param *.**.nic.phy80211p.decider "xmldoc(\"config.xml\")"
param *.**.nic.phy80211p.maxTXPower 100mW
param *.**.nic.phy80211p.sensitivity -94dBm
param *.**.nic.phy80211p.thermalNoise -95dBm
param *.**.nic.phy80211p.usePropagationDelay true
param *.**.nic.phy80211p.useThermalNoise true
param *.annotations.draw false
param *.connectionManager.alpha 2.0
param *.connectionManager.carrierFrequency "5.890e9 Hz"
param *.connectionManager.pMax 100mW
param *.connectionManager.sat -94dBm
param *.connectionManager.sendDirect true
param *.manager.autoShutdown true
param *.manager.commandLine "\"sumo --remote-port $port --seed $seed --configuration-file $configFile\""
param *.manager.configFile "\"./sumocfg/freeway.sumo.cfg\""
param *.manager.host "\"localhost\""
param *.manager.margin 25
param *.manager.moduleDisplayString "\"\""
param *.manager.moduleName "\"node\""
param *.manager.moduleType "\"Car\""
param *.manager.updateInterval 0.01s
param *.node[*].appl.attackStart 30s
param *.node[*].appl.attackerType 4
param *.node[*].appl.simulationDuration "60 s"
param *.node[*].appl_type "\"SimplePlatooningApp\""
param *.node[*].helper.nCars 8
param *.node[*].helper.nLanes 1
param *.node[*].helper.platoonSize 8
param *.node[*].helper_type "\"PositionHelper\""
param *.node[*].mobility.x 0
param *.node[*].mobility.y 0
param *.node[*].mobility.z 1.895
param *.node[*].prot.attackStart 30s
param *.node[*].prot.attackerType 4
param *.node[*].prot.attackingNode 3
param *.node[*].prot.beaconingInterval 0.1s
param *.node[*].prot.fakeAcc "(4 == 4)"
param *.node[*].prot.fakePos "(4 == 2)"
param *.node[*].prot.fakeSpeed "(4 == 3)"
param *.node[*].prot.maliciousAcc "-30 mpss"
param *.node[*].prot.maliciousSpeed 150kmph
param *.node[*].prot.packetSize 200
param *.node[*].prot.priority 2
param *.node[*].prot.shiftX "7 m"
param *.node[*].prot.useControllerAcceleration true
param *.node[*].protocol_type "\"SimplePlatooningBeaconing\""
param *.node[*].scenario.accHeadway 0.1s
param *.node[*].scenario.caccC1 0.5
param *.node[*].scenario.caccOmegaN "0.2 Hz"
param *.node[*].scenario.caccSpacing 20m
param *.node[*].scenario.caccXi 1
param *.node[*].scenario.controller "\"PLOEG\""
param *.node[*].scenario.engineTau "0.5 s"
param *.node[*].scenario.leaderHeadway 1.2s
param *.node[*].scenario.leaderOscillationFrequency "0.2 Hz"
param *.node[*].scenario.leaderSpeed 100kmph
param *.node[*].scenario.oscillationAmplitude "10 kmph"
param *.node[*].scenario.ploegH 0.5s
param *.node[*].scenario.ploegKd 0.7
param *.node[*].scenario.ploegKp 0.2
param *.node[*].scenario.startOscillating "5 s"
param *.node[*].scenario.useRealisticEngine false
param *.node[*].scenario_type "\"SinusoidalScenario\""
param *.node[*].unicast.packetLossRate 0
param *.obstacles.debug false
param *.playgroundSizeX 65000m
param *.playgroundSizeY 25000m
param *.playgroundSizeZ 50m
param *.world.use2D false
param *.world.useTorus false

vector 0  scenario.node[0].appl  distance  ETV
vector 1  scenario.node[0].appl  relativeSpeed  ETV
vector 2  scenario.node[0].appl  nodeId  ETV
vector 6  scenario.node[0].appl  acceleration  ETV
vector 7  scenario.node[0].appl  controllerAcceleration  ETV
vector 3  scenario.node[0].appl  speed  ETV
vector 4  scenario.node[0].appl  posx  ETV
vector 5  scenario.node[0].appl  posy  ETV
vector 22  scenario.node[1].appl  distance  ETV
vector 23  scenario.node[1].appl  relativeSpeed  ETV
vector 24  scenario.node[1].appl  nodeId  ETV
vector 28  scenario.node[1].appl  acceleration  ETV
vector 29  scenario.node[1].appl  controllerAcceleration  ETV
vector 25  scenario.node[1].appl  speed  ETV
vector 26  scenario.node[1].appl  posx  ETV
vector 27  scenario.node[1].appl  posy  ETV
vector 44  scenario.node[2].appl  distance  ETV
vector 45  scenario.node[2].appl  relativeSpeed  ETV
vector 46  scenario.node[2].appl  nodeId  ETV
vector 50  scenario.node[2].appl  acceleration  ETV
vector 51  scenario.node[2].appl  controllerAcceleration  ETV
vector 47  scenario.node[2].appl  speed  ETV
vector 48  scenario.node[2].appl  posx  ETV
vector 49  scenario.node[2].appl  posy  ETV
vector 66  scenario.node[3].appl  distance  ETV
vector 67  scenario.node[3].appl  relativeSpeed  ETV
vector 68  scenario.node[3].appl  nodeId  ETV
vector 72  scenario.node[3].appl  acceleration  ETV
vector 73  scenario.node[3].appl  controllerAcceleration  ETV
vector 69  scenario.node[3].appl  speed  ETV
vector 70  scenario.node[3].appl  posx  ETV
vector 71  scenario.node[3].appl  posy  ETV
vector 88  scenario.node[4].appl  distance  ETV
vector 89  scenario.node[4].appl  relativeSpeed  ETV
vector 90  scenario.node[4].appl  nodeId  ETV
vector 94  scenario.node[4].appl  acceleration  ETV
vector 95  scenario.node[4].appl  controllerAcceleration  ETV
vector 91  scenario.node[4].appl  speed  ETV
vector 92  scenario.node[4].appl  posx  ETV
vector 93  scenario.node[4].appl  posy  ETV
vector 110  scenario.node[5].appl  distance  ETV
vector 111  scenario.node[5].appl  relativeSpeed  ETV
vector 112  scenario.node[5].appl  nodeId  ETV
vector 116  scenario.node[5].appl  acceleration  ETV
vector 117  scenario.node[5].appl  controllerAcceleration  ETV
vector 113  scenario.node[5].appl  speed  ETV
vector 114  scenario.node[5].appl  posx  ETV
vector 115  scenario.node[5].appl  posy  ETV
vector 132  scenario.node[6].appl  distance  ETV
vector 133  scenario.node[6].appl  relativeSpeed  ETV
vector 134  scenario.node[6].appl  nodeId  ETV
vector 138  scenario.node[6].appl  acceleration  ETV
vector 139  scenario.node[6].appl  controllerAcceleration  ETV
vector 135  scenario.node[6].appl  speed  ETV
vector 136  scenario.node[6].appl  posx  ETV
vector 137  scenario.node[6].appl  posy  ETV
vector 154  scenario.node[7].appl  distance  ETV
vector 155  scenario.node[7].appl  relativeSpeed  ETV
vector 156  scenario.node[7].appl  nodeId  ETV
vector 160  scenario.node[7].appl  acceleration  ETV
vector 161  scenario.node[7].appl  controllerAcceleration  ETV
vector 157  scenario.node[7].appl  speed  ETV
vector 158  scenario.node[7].appl  posx  ETV
vector 159  scenario.node[7].appl  posy  ETV
vector 35  scenario.node[1].prot  leaderDelay  ETV
vector 33  scenario.node[1].prot  leaderDelayId  ETV
vector 36  scenario.node[1].prot  frontDelay  ETV
vector 34  scenario.node[1].prot  frontDelayId  ETV
vector 57  scenario.node[2].prot  leaderDelay  ETV
vector 55  scenario.node[2].prot  leaderDelayId  ETV
vector 79  scenario.node[3].prot  leaderDelay  ETV
vector 77  scenario.node[3].prot  leaderDelayId  ETV
vector 101  scenario.node[4].prot  leaderDelay  ETV
vector 99  scenario.node[4].prot  leaderDelayId  ETV
vector 123  scenario.node[5].prot  leaderDelay  ETV
vector 121  scenario.node[5].prot  leaderDelayId  ETV
vector 145  scenario.node[6].prot  leaderDelay  ETV
vector 143  scenario.node[6].prot  leaderDelayId  ETV
vector 167  scenario.node[7].prot  leaderDelay  ETV
vector 165  scenario.node[7].prot  leaderDelayId  ETV
vector 168  scenario.node[7].prot  frontDelay  ETV
vector 166  scenario.node[7].prot  frontDelayId  ETV
vector 58  scenario.node[2].prot  frontDelay  ETV
vector 56  scenario.node[2].prot  frontDelayId  ETV
vector 124  scenario.node[5].prot  frontDelay  ETV
vector 122  scenario.node[5].prot  frontDelayId  ETV
vector 80  scenario.node[3].prot  frontDelay  ETV
vector 78  scenario.node[3].prot  frontDelayId  ETV
vector 146  scenario.node[6].prot  frontDelay  ETV
vector 144  scenario.node[6].prot  frontDelayId  ETV
vector 102  scenario.node[4].prot  frontDelay  ETV
vector 100  scenario.node[4].prot  frontDelayId  ETV
vector 8  scenario.node[0].prot  nodeId  ETV
vector 9  scenario.node[0].prot  busyTime  ETV
vector 10  scenario.node[0].prot  collisions  ETV
vector 30  scenario.node[1].prot  nodeId  ETV
vector 31  scenario.node[1].prot  busyTime  ETV
vector 32  scenario.node[1].prot  collisions  ETV
vector 52  scenario.node[2].prot  nodeId  ETV
vector 53  scenario.node[2].prot  busyTime  ETV
vector 54  scenario.node[2].prot  collisions  ETV
vector 74  scenario.node[3].prot  nodeId  ETV
vector 75  scenario.node[3].prot  busyTime  ETV
vector 76  scenario.node[3].prot  collisions  ETV
vector 96  scenario.node[4].prot  nodeId  ETV
vector 97  scenario.node[4].prot  busyTime  ETV
vector 98  scenario.node[4].prot  collisions  ETV
vector 118  scenario.node[5].prot  nodeId  ETV
vector 119  scenario.node[5].prot  busyTime  ETV
vector 120  scenario.node[5].prot  collisions  ETV
vector 140  scenario.node[6].prot  nodeId  ETV
vector 141  scenario.node[6].prot  busyTime  ETV
vector 142  scenario.node[6].prot  collisions  ETV
vector 162  scenario.node[7].prot  nodeId  ETV
vector 163  scenario.node[7].prot  busyTime  ETV
vector 164  scenario.node[7].prot  collisions  ETV
7	232	1.11	-8.430731206488e-07
7	788	1.21	-8.247038785214e-07
7	1344	1.31	-7.948429328053e-07
7	1900	1.41	-7.5609037608615e-07
7	2456	1.51	-7.1073863239235e-07
7	3012	1.61	-6.6078666094427e-07
7	3568	1.71	-6.079568990458e-07
7	4124	1.81	-5.5371389606762e-07
7	4680	1.91	-4.9928438983216e-07
7	5244	2.01	-4.4567811841034e-07
7	5800	2.11	-3.9370868165634e-07
7	6356	2.21	-3.4401411852514e-07
7	6912	2.31	-2.9707706872273e-07
7	7468	2.41	-2.5324398578164e-07
7	8024	2.51	-2.1274344064182e-07
7	8580	2.61	-1.7570315336002e-07
7	9136	2.71	-1.4216582755466e-07
7	9692	2.81	-1.1210364547765e-07
7	10248	2.91	-8.5431519636359e-08
7	10812	3.01	-6.2018816748832e-08
7	11368	3.11	-4.1699859565369e-08
7	11924	3.21	-2.4283316690799e-08
7	12480	3.31	-9.5601571103998e-09
7	13036	3.41	2.6894362292751e-09
7	13592	3.51	1.2690140493987e-08
7	14148	3.61	2.0666576006079e-08
7	14704	3.71	2.6839355626862e-08
7	15260	3.81	3.1421798496467e-08
7	15816	3.91	3.4617407607129e-08
7	16380	4.01	3.6617997523081e-08
7	16936	4.11	3.7602347902066e-08
7	17492	4.21	3.7735404134764e-08
7	18048	4.31	3.7167730226884e-08
7	18604	4.41	3.6035434192172e-08
7	19160	4.51	3.446024621212e-08
7	19716	4.61	3.2549973383311e-08
7	20272	4.71	3.0399071704323e-08
7	20828	4.81	2.8089345960325e-08
7	21384	4.91	2.5690727767369e-08
7	21949	5.01	2.326218861981e-08
7	22506	5.11	0.34814789186464
7	23063	5.21	0.68726937161622
7	23620	5.31	1.0064706311115
7	24177	5.41	1.2963311698934
7	24734	5.51	1.5
7	25291	5.61	1.5
7	25848	5.71	1.5
7	26405	5.81	1.5
7	26962	5.91	1.5
7	27527	6.01	1.5
7	28084	6.11	1.5
7	28641	6.21	1.5
7	29198	6.31	1.5
7	29755	6.41	1.5
7	30312	6.51	1.4919234148491
7	30869	6.61	1.226499329248
7	31426	6.71	0.92305384082895
7	31983	6.81	0.58908102066068
7	32540	6.91	0.2323562172788
7	33105	7.01	-0.13919559696193
7	33662	7.11	-0.51762846464532
7	34219	7.21	-0.89509993840359
7	34776	7.31	-1.2639902875456
7	35333	7.41	-1.5
7	35890	7.51	-1.5
7	36447	7.61	-1.5
7	37004	7.71	-1.5
7	37561	7.81	-1.5
7	38118	7.91	-1.5
7	38683	8.01	-1.5
7	39240	8.11	-1.5
7	39797	8.21	-1.5
7	40354	8.31	-1.5
7	40911	8.41	-1.5
7	41468	8.51	-1.5
7	42025	8.61	-1.5
7	42582	8.71	-1.5
7	43139	8.81	-1.5
7	43696	8.91	-1.5
7	44261	9.01	-1.5
7	44818	9.11	-1.5
7	45375	9.21	-1.5
7	45932	9.31	-1.5
7	46489	9.41	-1.5
7	47046	9.51	-1.1784535904302
7	47603	9.61	-0.73985166419522
7	48160	9.71	-0.29046662059022
7	48717	9.81	0.15868205669937
7	49274	9.91	0.59737147691163
7	49839	10.01	1.0162504341895
7	50396	10.11	1.4069035498921
7	50953	10.21	1.5
7	51510	10.31	1.5
7	52067	10.41	1.5
7	52624	10.51	1.5
7	53181	10.61	1.5
7	53738	10.71	1.5
7	54295	10.81	1.5
7	54852	10.91	1.5
7	55417	11.01	1.5
7	55974	11.11	1.5
7	56531	11.21	1.5
7	57088	11.31	1.5
7	57645	11.41	1.5
7	58202	11.51	1.5
7	58759	11.61	1.5
7	59316	11.71	1.5
7	59873	11.81	1.5
7	60430	11.91	1.142056952341
7	60995	12.01	0.73271074174567
7	61552	12.11	0.30763491703603
7	62109	12.21	-0.1229018340005
7	62666	12.31	-0.54917422864573
7	63223	12.41	-0.96209331715876
7	63780	12.51	-1.353290027524
7	64337	12.61	-1.5
7	64894	12.71	-1.5
7	65451	12.81	-1.5
7	66008	12.91	-1.5
7	66573	13.01	-1.5
7	67130	13.11	-1.5
7	67687	13.21	-1.5
7	68244	13.31	-1.5
7	68801	13.41	-1.5
7	69358	13.51	-1.5
7	69915	13.61	-1.5
7	70472	13.71	-1.5
7	71029	13.81	-1.5
7	71586	13.91	-1.5
7	72151	14.01	-1.5
7	72708	14.11	-1.5
7	73265	14.21	-1.5
7	73822	14.31	-1.5
7	74379	14.41	-1.3008305793136
7	74936	14.51	-0.8883573602082
7	75493	14.61	-0.45792464374534
7	76050	14.71	-0.020297800477731
7	76607	14.81	0.41435934757689
7	77164	14.91	0.83657487484984
7	77729	15.01	1.2376491838973
7	78286	15.11	1.5
7	78843	15.21	1.5
7	79400	15.31	1.5
7	79957	15.41	1.5
7	80514	15.51	1.5
7	81071	15.61	1.5
7	81628	15.71	1.5
7	82185	15.81	1.5
7	82742	15.91	1.5
7	83307	16.01	1.5
7	83864	16.11	1.5
7	84421	16.21	1.5
7	84978	16.31	1.5
7	85535	16.41	1.5
7	86092	16.51	1.5
7	86649	16.61	1.5
7	87206	16.71	1.5
7	87763	16.81	1.5
7	88320	16.91	1.2451238477401
7	88885	17.01	0.83347870135556
7	89442	17.11	0.40470958877082
7	89999	17.21	-0.03059806221717
7	90556	17.31	-0.46243980386486
7	91113	17.41	-0.8814833530446
7	91670	17.51	-1.2791500631707
7	92227	17.61	-1.5
7	92784	17.71	-1.5
7	93341	17.81	-1.5
7	93898	17.91	-1.5
7	94463	18.01	-1.5
7	95020	18.11	-1.5
7	95577	18.21	-1.5
7	96134	18.31	-1.5
7	96691	18.41	-1.5
7	97248	18.51	-1.5
7	97805	18.61	-1.5
7	98362	18.71	-1.5
7	98919	18.81	-1.5
7	99476	18.91	-1.5
7	100041	19.01	-1.5
7	100598	19.11	-1.5
7	101155	19.21	-1.5
7	101712	19.31	-1.5
7	102269	19.41	-1.2657245815118
7	102826	19.51	-0.85377693481412
7	103383	19.61	-0.42439560037995
7	103940	19.71	0.011767371269134
7	104497	19.81	0.44464851836491
7	105054	19.91	0.86486384400621
7	105619	20.01	1.2637899041136
7	106176	20.11	1.5
7	106733	20.21	1.5
7	107290	20.31	1.5
7	107847	20.41	1.5
7	108404	20.51	1.5
7	108961	20.61	1.5
7	109518	20.71	1.5
7	110075	20.81	1.5
7	110632	20.91	1.5
7	111197	21.01	1.5
7	111754	21.11	1.5
7	112311	21.21	1.5
7	112868	21.31	1.5
7	113425	21.41	1.5
7	113982	21.51	1.5
7	114539	21.61	1.5
7	115096	21.71	1.5
7	115653	21.81	1.5
7	116210	21.91	1.258091551777
7	116775	22.01	0.8462549163489
7	117332	22.11	0.41709956367568
7	117889	22.21	-0.018747163542116
7	118446	22.31	-0.45124369149361
7	119003	22.41	-0.87102520538537
7	119560	22.51	-1.2694848794591
7	120117	22.61	-1.5
7	120674	22.71	-1.5
7	121231	22.81	-1.5
7	121788	22.91	-1.5
7	122353	23.01	-1.5
7	122910	23.11	-1.5
7	123467	23.21	-1.5
7	124024	23.31	-1.5
7	124581	23.41	-1.5
7	125138	23.51	-1.5
7	125695	23.61	-1.5
7	126252	23.71	-1.5
7	126809	23.81	-1.5
7	127366	23.91	-1.5
7	127931	24.01	-1.5
7	128488	24.11	-1.5
7	129045	24.21	-1.5
7	129602	24.31	-1.5
7	130159	24.41	-1.2609239651112
7	130716	24.51	-0.8490461568448
7	131273	24.61	-0.41980696481052
7	131830	24.71	0.016157099446737
7	132387	24.81	0.44879633966076
7	132944	24.91	0.86873882266934
7	133509	25.01	1.26737155572
7	134066	25.11	1.5
7	134623	25.21	1.5
7	135180	25.31	1.5
7	135737	25.41	1.5
7	136294	25.51	1.5
7	136851	25.61	1.5
7	137408	25.71	1.5
7	137965	25.81	1.5
7	138522	25.91	1.5
7	139087	26.01	1.5
7	139644	26.11	1.5
7	140201	26.21	1.5
7	140758	26.31	1.5
7	141315	26.41	1.5
7	141872	26.51	1.5
7	142429	26.61	1.5
7	142986	26.71	1.5
7	143543	26.81	1.5
7	144100	26.91	1.2598728518634
7	144665	27.01	0.84801032251441
7	145222	27.11	0.41880224309152
7	145779	27.21	-0.017118277441824
7	146336	27.31	-0.44970455708397
7	146893	27.41	-0.86958730431876
7	147450	27.51	-1.2681558149826
7	148007	27.61	-1.5
7	148564	27.71	-1.5
7	149121	27.81	-1.5
7	149678	27.91	-1.5
7	150243	28.01	-1.5
7	150800	28.11	-1.5
7	151357	28.21	-1.5
7	151914	28.31	-1.5
7	152471	28.41	-1.5
7	153028	28.51	-1.5
7	153585	28.61	-1.5
7	154142	28.71	-1.5
7	154699	28.81	-1.5
7	155256	28.91	-1.5
7	155821	29.01	-1.5
7	156378	29.11	-1.5
7	156935	29.21	-1.5
7	157492	29.31	-1.5
7	158049	29.41	-1.2602629232513
7	158606	29.51	-0.84839472385599
7	159163	29.61	-0.41917509845245
7	159720	29.71	0.016761581287305
7	160277	29.81	0.44936751475852
7	160834	29.91	0.86927243012183
7	161399	30.01	1.267864773911
7	161956	30.11	1.5
7	162513	30.21	1.5
7	163070	30.31	1.5
7	163627	30.41	1.5
7	164184	30.51	1.5
7	164741	30.61	1.5
7	165298	30.71	1.5
7	165855	30.81	1.5
7	166412	30.91	1.5
7	166977	31.01	1.5
7	167534	31.11	1.5
7	168091	31.21	1.5
7	168648	31.31	1.5
7	169205	31.41	1.5
7	169762	31.51	1.5
7	170319	31.61	1.5
7	170876	31.71	1.5
7	171433	31.81	1.5
7	171990	31.91	1.2601181665204
7	172555	32.01	0.8482520712972
7	173112	32.11	0.41903673064365
7	173669	32.21	-0.016893952363397
7	174226	32.31	-0.44949259223633
7	174783	32.41	-0.8693892809368
7	175340	32.51	-1.2679727801776
7	175897	32.61	-1.5
7	176454	32.71	-1.5
7	177011	32.81	-1.5
7	177568	32.91	-1.5
7	178133	33.01	-1.5
7	178690	33.11	-1.5
7	179247	33.21	-1.5
7	179804	33.31	-1.5
7	180361	33.41	-1.5
7	180918	33.51	-1.5
7	181475	33.61	-1.5
7	182032	33.71	-1.5
7	182589	33.81	-1.5
7	183146	33.91	-1.5
7	183711	34.01	-1.5
7	184268	34.11	-1.5
7	184825	34.21	-1.5
7	185382	34.31	-1.5
7	185939	34.41	-1.2601718862041
7	186496	34.51	-0.84830501011592
7	187053	34.61	-0.41908807937801
7	187610	34.71	0.016844829035612
7	188167	34.81	0.44944617558609
7	188724	34.91	0.86934591722741
7	189289	35.01	1.2679326987083
7	189846	35.11	1.5
7	190403	35.21	1.5
7	190960	35.31	1.5
7	191517	35.41	1.5
7	192074	35.51	1.5
7	192631	35.61	1.5
7	193188	35.71	1.5
7	193745	35.81	1.5
7	194302	35.91	1.5
7	194867	36.01	1.5
7	195424	36.11	1.5
7	195981	36.21	1.5
7	196538	36.31	1.5
7	197095	36.41	1.5
7	197652	36.51	1.5
7	198209	36.61	1.5
7	198766	36.71	1.5
7	199323	36.81	1.5
7	199880	36.91	1.2601519506571
7	200445	37.01	0.84828536435039
6	232	1.11	-1.2391545567425e-07
6	788	1.21	-2.514333630188e-07
6	1344	1.31	-3.5153284727585e-07
6	1900	1.41	-4.2734420446777e-07
6	2456	1.51	-4.8187125401e-07
6	3012	1.61	-5.1795971955926e-07
6	3568	1.71	-5.3827413637464e-07
6	4124	1.81	-5.4528506154838e-07
6	4680	1.91	-5.4125663950799e-07
6	5244	2.01	-5.2824375984528e-07
6	5800	2.11	-5.080941889446e-07
6	6356	2.21	-4.8245141215375e-07
6	6912	2.31	-4.5276244975412e-07
6	7468	2.41	-4.202860282021e-07
6	8024	2.51	-3.8610643571246e-07
6	8580	2.61	-3.5114133822844e-07
6	9136	2.71	-3.1616025353287e-07
6	9692	2.81	-2.8179307776099e-07
6	10248	2.91	-2.4854536206931e-07
6	10812	3.01	-2.1681287876163e-07
6	11368	3.11	-1.8689298997288e-07
6	11924	3.21	-1.5899530581009e-07
6	12480	3.31	-1.3325838210676e-07
6	13036	3.41	-1.0975469422192e-07
6	13592	3.51	-8.8505203166278e-08
6	14148	3.61	-6.948575048682e-08
6	14704	3.71	-5.263665059374e-08
6	15260	3.81	-3.7870506730542e-08
6	15816	3.91	-2.5077895315917e-08
6	16380	4.01	-1.4133405557004e-08
6	16936	4.11	-4.9016790626411e-09
6	17492	4.21	2.7593927143243e-09
6	18048	4.31	8.9940499492513e-09
6	18604	4.41	1.3947598631603e-08
6	19160	4.51	1.7761081494427e-08
6	19716	4.61	2.0570567471623e-08
6	20272	4.71	2.2507151697937e-08
6	20828	4.81	2.3691626438449e-08
6	21384	4.91	2.4239099616352e-08
6	21949	5.01	2.4253310471067e-08
6	22506	5.11	0.0068264526728257
6	23063	5.21	0.074594836732089
6	23620	5.31	0.19005134681258
6	24177	5.41	0.34050272642077
6	24734	5.51	0.51301638947834
6	25291	5.61	0.6902545856434
6	25848	5.71	0.83572672600098
6	26405	5.81	0.95506454902292
6	26962	5.91	1.0529631292492
6	27527	6.01	1.133274063098
6	28084	6.11	1.1991570011418
6	28641	6.21	1.2532039573571
6	29198	6.31	1.2975412860019
6	29755	6.41	1.333913338177
6	30312	6.51	1.3635927249268
6	30869	6.61	1.3702053615898
6	31426	6.71	1.3272611926745
6	31983	6.81	1.2373810921854
6	32540	6.91	1.1040433755532
6	33105	7.01	0.93147092012096
6	33662	7.11	0.72451590565734
6	34219	7.21	0.48854318346834
6	34776	7.31	0.2293132962599
6	35333	7.41	-0.044839398398011
6	35890	7.51	-0.30626147443016
6	36447	7.61	-0.52071863005345
6	37004	7.71	-0.69664819306503
6	37561	7.81	-0.84097171097959
6	38118	7.91	-0.95936726353223
6	38683	8.01	-1.0564928537818
6	39240	8.11	-1.1361696666178
6	39797	8.21	-1.2015324045674
6	40354	8.31	-1.2551526155189
6	40911	8.41	-1.2991398644115
6	41468	8.51	-1.3352247292573
6	42025	8.61	-1.3648268867847
6	42582	8.71	-1.3891109663845
6	43139	8.81	-1.4090323697992
6	43696	8.91	-1.4253748592211
6	44261	9.01	-1.4387813926344
6	44818	9.11	-1.4497794195275
6	45375	9.21	-1.4588016321909
6	45932	9.31	-1.4662029890104
6	46489	9.41	-1.4722746794938
6	47046	9.51	-1.4696249146823
6	47603	9.61	-1.3967850639141
6	48160	9.71	-1.2587757641274
6	48717	9.81	-1.0660952217858
6	49274	9.91	-0.82923335017639
6	49839	10.01	-0.55852907832801
6	50396	10.11	-0.26404116068406
6	50953	10.21	0.03943269874469
6	51510	10.31	0.30182609756224
6	52067	10.41	0.51708007617997
6	52624	10.51	0.69366331158065
6	53181	10.61	0.83852306852847
6	53738	10.71	0.95735852386056
6	54295	10.81	1.0548449876072
6	54852	10.91	1.1348178424026
6	55417	11.01	1.2004234378704
6	55974	11.11	1.2542428765748
6	56531	11.21	1.2983935616166
6	57088	11.31	1.3346125010283
6	57645	11.41	1.3643246463978
6	58202	11.51	1.3886989543376
6	58759	11.61	1.4086943764163
6	59316	11.71	1.4250975869238
6	59873	11.81	1.4385539327762
6	60430	11.91	1.4345627372837
6	60995	12.01	1.3623449188774
6	61552	12.11	1.2299875654499
6	62109	12.21	1.0461448397812
6	62666	12.31	0.81967864249357
6	63223	12.41	0.55952045905059
6	63780	12.51	0.27454262949682
6	64337	12.61	-0.02234164487227
6	64894	12.71	-0.28780548057448
6	65451	12.81	-0.50557828687161
6	66008	12.91	-0.68422783827593
6	66573	13.01	-0.83078269404453
6	67130	13.11	-0.95100872081275
6	67687	13.21	-1.0496359374716
6	68244	13.31	-1.1305446069798
6	68801	13.41	-1.1969178964556
6	69358	13.51	-1.2513671116345
6	69915	13.61	-1.2960344327361
6	70472	13.71	-1.3326771936619
6	71029	13.81	-1.3627370202897
6	71586	13.91	-1.3873965479586
6	72151	14.01	-1.4076259495578
6	72708	14.11	-1.4242211047666
6	73265	14.21	-1.4378349121291
6	73822	14.31	-1.4490029758537
6	74379	14.41	-1.4542593951845
6	74936	14.51	-1.4067454390027
6	75493	14.61	-1.2938574955285
6	76050	14.71	-1.1248409052222
6	76607	14.81	-0.90912582142266
6	77164	14.91	-0.65618298375618
6	77729	15.01	-0.37539052553193
6	78286	15.11	-0.078063005083351
6	78843	15.21	0.20543869668366
6	79400	15.31	0.43800883574043
6	79957	15.41	0.62879735391697
6	80514	15.51	0.78531039043881
6	81071	15.61	0.91370559385808
6	81628	15.71	1.0190343806951
6	82185	15.81	1.1054406719047
6	82742	15.91	1.1763239259967
6	83307	16.01	1.2344728829817
6	83864	16.11	1.2821752809831
6	84421	16.21	1.3213078620836
6	84978	16.31	1.3534102084598
6	85535	16.41	1.3797453137308
6	86092	16.51	1.4013492725667
6	86649	16.61	1.4190720434691
6	87206	16.71	1.4336108884482
6	87763	16.81	1.4455378052084
6	88320	16.91	1.4502949065335
6	88885	17.01	1.3935559567532
6	89442	17.11	1.2733368701447
6	89999	17.21	1.098674244054
6	90556	17.31	0.87879676591527
6	91113	17.41	0.62298329276125
6	91670	17.51	0.34043137853565
6	92227	17.61	0.043031849081743
6	92784	17.71	-0.23417644595263
6	93341	17.81	-0.46158379949546
6	93898	17.91	-0.64813703535336
6	94463	18.01	-0.80117566522588
6	95020	18.11	-0.92672064505699
6	95577	18.21	-1.0297112558188
6	96134	18.31	-1.1141994282603
6	96691	18.41	-1.1835091568827
6	97248	18.51	-1.2403672749226
6	97805	18.61	-1.2870107353905
6	98362	18.71	-1.3252746188858
6	98919	18.81	-1.3566643306586
6	99476	18.91	-1.382414827345
6	100041	19.01	-1.4035392035215
6	100598	19.11	-1.4208685496044
6	101155	19.21	-1.4350846492011
6	101712	19.31	-1.4467468023362
6	102269	19.41	-1.4517201941775
6	102826	19.51	-1.3984004323884
6	103383	19.61	-1.280899381009
6	103940	19.71	-1.1083308503771
6	104497	19.81	-0.88999806036796
6	105054	19.91	-0.63525086466818
6	105619	20.01	-0.35335363991322
6	106176	20.11	-0.055983891306965
6	106733	20.21	0.22355126013309
6	107290	20.31	0.45286744637245
6	107847	20.41	0.64098658988812
6	108404	20.51	0.79530980944469
6	108961	20.61	0.92190860023926
6	109518	20.71	1.0257637030335
6	110075	20.81	1.1109610600446
6	110632	20.91	1.1808525670222
6	111197	21.01	1.2381879459468
6	111754	21.11	1.2852229265704
6	112311	21.21	1.32380799296
6	112868	21.31	1.3554611865732
6	113425	21.41	1.3814278301393
6	113982	21.51	1.402729522043
6	114539	21.61	1.4202043287796
6	115096	21.71	1.4345397567766
6	115653	21.81	1.4462998007627
6	116210	21.91	1.4512038299461
6	116775	22.01	1.3966149622046
6	117332	22.11	1.2781048258542
6	117889	22.21	1.104758616826
6	118446	22.31	0.88585193073989
6	119003	22.41	0.63070830476128
6	119560	22.51	0.3485673438103
6	120117	22.61	0.051185654371366
6	120674	22.71	-0.22748748564538
6	121231	22.81	-0.45609652227974
6	121788	22.91	-0.64363555681837
6	122353	23.01	-0.79748288496262
6	122910	23.11	-0.92369127904597
6	123467	23.21	-1.0272261205628
6	124024	23.31	-1.1121607517783
6	124581	23.41	-1.1818367320963
6	125138	23.51	-1.238995304092
6	125695	23.61	-1.2858852414524
6	126252	23.71	-1.3243513218473
6	126809	23.81	-1.355906905502
6	127366	23.91	-1.3817934749046
6	127931	24.01	-1.403029478104
6	128488	24.11	-1.4204503972248
6	129045	24.21	-1.434741618608
6	129602	24.31	-1.4464653977726
6	130159	24.41	-1.4513952146881
6	130716	24.51	-1.3972773206763
6	131273	24.61	-1.2791416668563
6	131830	24.71	-1.1060840673021
6	132387	24.81	-0.88739036841652
6	132944	24.91	-0.63239387292597
6	133509	25.01	-0.35034337810913
6	134066	25.11	-0.052966136909305
6	134623	25.21	0.2260268698226
6	135180	25.31	0.45489830857264
6	135737	25.41	0.64265260424108
6	136294	25.51	0.79667652148672
6	136851	25.61	0.92302978013947
6	137408	25.71	1.026683461059
6	137965	25.81	1.1117155819772
6	138522	25.91	1.1814715378073
6	139087	26.01	1.2386957175785
6	139644	26.11	1.2856394761656
6	140201	26.21	1.3241497087126
6	140758	26.31	1.3557415125099
6	141315	26.41	1.381657795045
6	141872	26.51	1.4029181733619
6	142429	26.61	1.4203590885685
6	142986	26.71	1.4346667137069
6	143543	26.81	1.4464039496644
6	144100	26.91	1.4513241957726
6	144665	27.01	1.3970315218256
6	145222	27.11	1.2787568961965
6	145779	27.21	1.1055921925461
6	146336	27.31	0.88681945319387
6	146893	27.41	0.63176835684509
6	147450	27.51	0.34968428947479
6	148007	27.61	0.052305397195695
6	148564	27.71	-0.22656890652364
6	149121	27.81	-0.45534296745835
6	149678	27.91	-0.64301737940227
6	150243	28.01	-0.79697576417033
6	150800	28.11	-0.92327526336611
6	151357	28.21	-1.0268848428069
6	151914	28.31	-1.1118807851517
6	152471	28.41	-1.1816070619506
6	153028	28.51	-1.2388068945789
6	153585	28.61	-1.2857306800289
6	154142	28.71	-1.3242245276459
6	154699	28.81	-1.3558028900945
6	155256	28.91	-1.3817081460427
6	155821	29.01	-1.4029594787171
6	156378	29.11	-1.4203929733469
6	156935	29.21	-1.4346945110272
6	157492	29.31	-1.4464267531491
6	158049	29.41	-1.4513505510322
6	158606	29.51	-1.3971227384758
6	159163	29.61	-1.2788996857299
6	159720	29.71	-1.1057747287548
6	160277	29.81	-0.88703132157519
6	160834	29.91	-0.63200048778356
6	161399	30.01	-0.34992887929945
6	161956	30.11	-0.052550599747647
6	162513	30.21	0.2263677550264
6	163070	30.31	0.45517795317025
6	163627	30.41	0.64288201021157
6	164184	30.51	0.7968647142846
6	164741	30.61	0.92318416378134
6	165298	30.71	1.0268101094169
6	165855	30.81	1.1118194777417
6	166412	30.91	1.1815567685211
6	166977	31.01	1.2387656364492
6	167534	31.11	1.2856968339921
6	168091	31.21	1.3241967621074
6	168648	31.31	1.3557801126822
6	169205	31.41	1.3816894606308
6	169762	31.51	1.4029441501705
6	170319	31.61	1.4203803985996
6	170876	31.71	1.4346841953547
6	171433	31.81	1.4464182907037
6	171990	31.91	1.451340770512
6	172555	32.01	1.397088887688
6	173112	32.11	1.2788466960817
6	173669	32.21	1.105706988989
6	174226	32.31	0.88695269654693
6	174783	32.41	0.6319143432556
6	175340	32.51	0.34983811123936
6	175897	32.61	0.052459604302157
6	176454	32.71	-0.22644240298604
6	177011	32.81	-0.45523919049693
6	177568	32.91	-0.64293224614822
6	178133	33.01	-0.7969059252499
6	178690	33.11	-0.92321797112582
6	179247	33.21	-1.0268378432144
6	179804	33.31	-1.1118422291158
6	180361	33.41	-1.181575432572
6	180918	33.51	-1.2387809474717
6	181475	33.61	-1.2857093943634
6	182032	33.71	-1.3242070659867
6	182589	33.81	-1.3557885654517
6	183146	33.91	-1.3816963948457
6	183711	34.01	-1.4029498386424
6	184268	34.11	-1.4203850651278
6	184825	34.21	-1.434688023533
6	185382	34.31	-1.4464214311442
6	185939	34.41	-1.4513444000944
6	186496	34.51	-1.3971014498232
6	187053	34.61	-1.2788663607086
6	187610	34.71	-1.1057321274318
6	188167	34.81	-0.88698187454561
6	188724	34.91	-0.63194631176522
6	189289	35.01	-0.34987179555621
6	189846	35.11	-0.052493373001994
6	190403	35.21	0.22641470089013
6	190960	35.31	0.45521646512974
6	191517	35.41	0.64291360343276
6	192074	35.51	0.79689063173021
6	192631	35.61	0.9232054251143
6	193188	35.71	1.0268275511155
6	193745	35.81	1.1118337860104
6	194302	35.91	1.1815685062846
6	194867	36.01	1.2387752655037
6	195424	36.11	1.2857047331707
6	195981	36.21	1.324203242185
6	196538	36.31	1.3557854286034
6	197095	36.41	1.3816938215378
6	197652	36.51	1.4029477276342
6	198209	36.61	1.4203833333653
6	198766	36.71	1.4346866028841
6	199323	36.81	1.4464202657173
6	199880	36.91	1.4513430531448
6	200445	37.01	1.3970967879747
5	232	1.11	36.55
5	788	1.21	36.55
5	1344	1.31	36.55
5	1900	1.41	36.55
5	2456	1.51	36.55
5	3012	1.61	36.55
5	3568	1.71	36.55
5	4124	1.81	36.55
5	4680	1.91	36.55
5	5244	2.01	36.55
5	5800	2.11	36.55
5	6356	2.21	36.55
5	6912	2.31	36.55
5	7468	2.41	36.55
5	8024	2.51	36.55
5	8580	2.61	36.55
5	9136	2.71	36.55
5	9692	2.81	36.55
5	10248	2.91	36.55
5	10812	3.01	36.55
5	11368	3.11	36.55
5	11924	3.21	36.55
5	12480	3.31	36.55
5	13036	3.41	36.55
5	13592	3.51	36.55
5	14148	3.61	36.55
5	14704	3.71	36.55
5	15260	3.81	36.55
5	15816	3.91	36.55
5	16380	4.01	36.55
5	16936	4.11	36.55
5	17492	4.21	36.55
5	18048	4.31	36.55
5	18604	4.41	36.55
5	19160	4.51	36.55
5	19716	4.61	36.55
5	20272	4.71	36.55
5	20828	4.81	36.55
5	21384	4.91	36.55
5	21949	5.01	36.55
5	22506	5.11	36.55
5	23063	5.21	36.55
5	23620	5.31	36.55
5	24177	5.41	36.55
5	24734	5.51	36.55
5	25291	5.61	36.55
5	25848	5.71	36.55
5	26405	5.81	36.55
5	26962	5.91	36.55
5	27527	6.01	36.55
5	28084	6.11	36.55
5	28641	6.21	36.55
5	29198	6.31	36.55
5	29755	6.41	36.55
5	30312	6.51	36.55
5	30869	6.61	36.55
5	31426	6.71	36.55
5	31983	6.81	36.55
5	32540	6.91	36.55
5	33105	7.01	36.55
5	33662	7.11	36.55
5	34219	7.21	36.55
5	34776	7.31	36.55
5	35333	7.41	36.55
5	35890	7.51	36.55
5	36447	7.61	36.55
5	37004	7.71	36.55
5	37561	7.81	36.55
5	38118	7.91	36.55
5	38683	8.01	36.55
5	39240	8.11	36.55
5	39797	8.21	36.55
5	40354	8.31	36.55
5	40911	8.41	36.55
5	41468	8.51	36.55
5	42025	8.61	36.55
5	42582	8.71	36.55
5	43139	8.81	36.55
5	43696	8.91	36.55
5	44261	9.01	36.55
5	44818	9.11	36.55
5	45375	9.21	36.55
5	45932	9.31	36.55
5	46489	9.41	36.55
5	47046	9.51	36.55
5	47603	9.61	36.55
5	48160	9.71	36.55
5	48717	9.81	36.55
5	49274	9.91	36.55
5	49839	10.01	36.55
5	50396	10.11	36.55
5	50953	10.21	36.55
5	51510	10.31	36.55
5	52067	10.41	36.55
5	52624	10.51	36.55
5	53181	10.61	36.55
5	53738	10.71	36.55
5	54295	10.81	36.55
5	54852	10.91	36.55
5	55417	11.01	36.55
5	55974	11.11	36.55
5	56531	11.21	36.55
5	57088	11.31	36.55
5	57645	11.41	36.55
5	58202	11.51	36.55
5	58759	11.61	36.55
5	59316	11.71	36.55
5	59873	11.81	36.55
5	60430	11.91	36.55
5	60995	12.01	36.55
5	61552	12.11	36.55
5	62109	12.21	36.55
5	62666	12.31	36.55
5	63223	12.41	36.55
5	63780	12.51	36.55
5	64337	12.61	36.55
5	64894	12.71	36.55
5	65451	12.81	36.55
5	66008	12.91	36.55
5	66573	13.01	36.55
5	67130	13.11	36.55
5	67687	13.21	36.55
5	68244	13.31	36.55
5	68801	13.41	36.55
5	69358	13.51	36.55
5	69915	13.61	36.55
5	70472	13.71	36.55
5	71029	13.81	36.55
5	71586	13.91	36.55
5	72151	14.01	36.55
5	72708	14.11	36.55
5	73265	14.21	36.55
5	73822	14.31	36.55
5	74379	14.41	36.55
5	74936	14.51	36.55
5	75493	14.61	36.55
5	76050	14.71	36.55
5	76607	14.81	36.55
5	77164	14.91	36.55
5	77729	15.01	36.55
5	78286	15.11	36.55
5	78843	15.21	36.55
5	79400	15.31	36.55
5	79957	15.41	36.55
5	80514	15.51	36.55
5	81071	15.61	36.55
5	81628	15.71	36.55
5	82185	15.81	36.55
5	82742	15.91	36.55
5	83307	16.01	36.55
5	83864	16.11	36.55
5	84421	16.21	36.55
5	84978	16.31	36.55
5	85535	16.41	36.55
5	86092	16.51	36.55
5	86649	16.61	36.55
5	87206	16.71	36.55
5	87763	16.81	36.55
5	88320	16.91	36.55
5	88885	17.01	36.55
5	89442	17.11	36.55
5	89999	17.21	36.55
5	90556	17.31	36.55
5	91113	17.41	36.55
5	91670	17.51	36.55
5	92227	17.61	36.55
5	92784	17.71	36.55
5	93341	17.81	36.55
5	93898	17.91	36.55
5	94463	18.01	36.55
5	95020	18.11	36.55
5	95577	18.21	36.55
5	96134	18.31	36.55
5	96691	18.41	36.55
5	97248	18.51	36.55
5	97805	18.61	36.55
5	98362	18.71	36.55
5	98919	18.81	36.55
5	99476	18.91	36.55
5	100041	19.01	36.55
5	100598	19.11	36.55
5	101155	19.21	36.55
5	101712	19.31	36.55
5	102269	19.41	36.55
5	102826	19.51	36.55
5	103383	19.61	36.55
5	103940	19.71	36.55
5	104497	19.81	36.55
5	105054	19.91	36.55
5	105619	20.01	36.55
5	106176	20.11	36.55
5	106733	20.21	36.55
5	107290	20.31	36.55
5	107847	20.41	36.55
5	108404	20.51	36.55
5	108961	20.61	36.55
5	109518	20.71	36.55
5	110075	20.81	36.55
5	110632	20.91	36.55
5	111197	21.01	36.55
5	111754	21.11	36.55
5	112311	21.21	36.55
5	112868	21.31	36.55
5	113425	21.41	36.55
5	113982	21.51	36.55
5	114539	21.61	36.55
5	115096	21.71	36.55
5	115653	21.81	36.55
5	116210	21.91	36.55
5	116775	22.01	36.55
5	117332	22.11	36.55
5	117889	22.21	36.55
5	118446	22.31	36.55
5	119003	22.41	36.55
5	119560	22.51	36.55
5	120117	22.61	36.55
5	120674	22.71	36.55
5	121231	22.81	36.55
5	121788	22.91	36.55
5	122353	23.01	36.55
5	122910	23.11	36.55
5	123467	23.21	36.55
5	124024	23.31	36.55
5	124581	23.41	36.55
5	125138	23.51	36.55
5	125695	23.61	36.55
5	126252	23.71	36.55
5	126809	23.81	36.55
5	127366	23.91	36.55
5	127931	24.01	36.55
5	128488	24.11	36.55
5	129045	24.21	36.55
5	129602	24.31	36.55
5	130159	24.41	36.55
5	130716	24.51	36.55
5	131273	24.61	36.55
5	131830	24.71	36.55
5	132387	24.81	36.55
5	132944	24.91	36.55
5	133509	25.01	36.55
5	134066	25.11	36.55
5	134623	25.21	36.55
5	135180	25.31	36.55
5	135737	25.41	36.55
5	136294	25.51	36.55
5	136851	25.61	36.55
5	137408	25.71	36.55
5	137965	25.81	36.55
5	138522	25.91	36.55
5	139087	26.01	36.55
5	139644	26.11	36.55
5	140201	26.21	36.55
5	140758	26.31	36.55
5	141315	26.41	36.55
5	141872	26.51	36.55
5	142429	26.61	36.55
5	142986	26.71	36.55
5	143543	26.81	36.55
5	144100	26.91	36.55
5	144665	27.01	36.55
5	145222	27.11	36.55
5	145779	27.21	36.55
5	146336	27.31	36.55
5	146893	27.41	36.55
5	147450	27.51	36.55
5	148007	27.61	36.55
5	148564	27.71	36.55
5	149121	27.81	36.55
5	149678	27.91	36.55
5	150243	28.01	36.55
5	150800	28.11	36.55
5	151357	28.21	36.55
5	151914	28.31	36.55
5	152471	28.41	36.55
5	153028	28.51	36.55
5	153585	28.61	36.55
5	154142	28.71	36.55
5	154699	28.81	36.55
5	155256	28.91	36.55
5	155821	29.01	36.55
5	156378	29.11	36.55
5	156935	29.21	36.55
5	157492	29.31	36.55
5	158049	29.41	36.55
5	158606	29.51	36.55
5	159163	29.61	36.55
5	159720	29.71	36.55
5	160277	29.81	36.55
5	160834	29.91	36.55
5	161399	30.01	36.55
5	161956	30.11	36.55
5	162513	30.21	36.55
5	163070	30.31	36.55
5	163627	30.41	36.55
5	164184	30.51	36.55
5	164741	30.61	36.55
5	165298	30.71	36.55
5	165855	30.81	36.55
5	166412	30.91	36.55
5	166977	31.01	36.55
5	167534	31.11	36.55
5	168091	31.21	36.55
5	168648	31.31	36.55
5	169205	31.41	36.55
5	169762	31.51	36.55
5	170319	31.61	36.55
5	170876	31.71	36.55
5	171433	31.81	36.55
5	171990	31.91	36.55
5	172555	32.01	36.55
5	173112	32.11	36.55
5	173669	32.21	36.55
5	174226	32.31	36.55
5	174783	32.41	36.55
5	175340	32.51	36.55
5	175897	32.61	36.55
5	176454	32.71	36.55
5	177011	32.81	36.55
5	177568	32.91	36.55
5	178133	33.01	36.55
5	178690	33.11	36.55
5	179247	33.21	36.55
5	179804	33.31	36.55
5	180361	33.41	36.55
5	180918	33.51	36.55
5	181475	33.61	36.55
5	182032	33.71	36.55
5	182589	33.81	36.55
5	183146	33.91	36.55
5	183711	34.01	36.55
5	184268	34.11	36.55
5	184825	34.21	36.55
5	185382	34.31	36.55
5	185939	34.41	36.55
5	186496	34.51	36.55
5	187053	34.61	36.55
5	187610	34.71	36.55
5	188167	34.81	36.55
5	188724	34.91	36.55
5	189289	35.01	36.55
5	189846	35.11	36.55
5	190403	35.21	36.55
5	190960	35.31	36.55
5	191517	35.41	36.55
5	192074	35.51	36.55
5	192631	35.61	36.55
5	193188	35.71	36.55
5	193745	35.81	36.55
5	194302	35.91	36.55
5	194867	36.01	36.55
5	195424	36.11	36.55
5	195981	36.21	36.55
5	196538	36.31	36.55
5	197095	36.41	36.55
5	197652	36.51	36.55
5	198209	36.61	36.55
5	198766	36.71	36.55
5	199323	36.81	36.55
5	199880	36.91	36.55
5	200445	37.01	36.55
4	232	1.11	181.34595413181
4	788	1.21	184.1237319926
4	1344	1.31	186.90150985067
4	1900	1.41	189.67928770508
4	2456	1.51	192.4570655551
4	3012	1.61	195.23484340023
4	3568	1.71	198.01262124013
4	4124	1.81	200.79039907464
4	4680	1.91	203.56817690371
4	5244	2.01	206.34595472739
4	5800	2.11	209.12373254582
4	6356	2.21	211.90151035923
4	6912	2.31	214.67928816787
4	7468	2.41	217.45706597205
4	8024	2.51	220.23484377209
4	8580	2.61	223.01262156834
4	9136	2.71	225.79039936115
4	9692	2.81	228.56817715087
4	10248	2.91	231.34595493784
4	10812	3.01	234.12373272238
4	11368	3.11	236.90151050482
4	11924	3.21	239.67928828544
4	12480	3.31	242.45706606453
4	13036	3.41	245.23484384233
4	13592	3.51	248.01262161908
4	14148	3.61	250.79039939497
4	14704	3.71	253.56817717021
4	15260	3.81	256.34595494495
4	15816	3.91	259.12373271934
4	16380	4.01	261.9015104935
4	16936	4.11	264.67928826754
4	17492	4.21	267.45706604154
4	18048	4.31	270.23484381558
4	18604	4.41	273.01262158972
4	19160	4.51	275.79039936401
4	19716	4.61	278.56817713849
4	20272	4.71	281.34595491317
4	20828	4.81	284.12373268808
4	21384	4.91	286.90151046323
4	21949	5.01	289.67928823862
4	22506	5.11	292.45706737954
4	23063	5.21	295.2350730224
4	23620	5.31	298.01407875887
4	24177	5.41	300.79530921659
4	24734	5.51	303.58031437927
4	25291	5.61	306.3708291093
4	25848	5.71	309.16853889117
4	26405	5.81	311.9748457653
4	26962	5.91	314.79090002494
4	27527	6.01	317.61764531122
4	28084	6.11	320.45585573853
4	28641	6.21	323.30616635029
4	29198	6.31	326.16909810329
4	29755	6.41	329.04507836356
4	30312	6.51	331.93445768841
4	30869	6.61	334.83749382775
4	31426	6.71	337.75414034864
4	31983	6.81	340.68387073454
4	32540	6.91	343.6256962091
4	33105	7.01	346.57820205954
4	33662	7.11	349.53959117134
4	34219	7.21	352.50773361857
4	34776	7.31	355.48022114186
4	35333	7.41	358.45442580426
4	35890	7.51	361.42763467852
4	36447	7.61	364.39734995829
4	37004	7.71	367.36150449824
4	37561	7.81	370.31840251924
4	38118	7.91	373.26665289176
4	38683	8.01	376.20511440503
4	39240	8.11	379.13285086878
4	39797	8.21	382.04909428087
4	40354	8.31	384.95321461208
4	40911	8.41	387.84469501899
4	41468	8.51	390.72311151
4	42025	8.61	393.58811626429
4	42582	8.71	396.43942394768
4	43139	8.81	399.27680048673
4	43696	8.91	402.10005385972
4	44261	9.01	404.90902654192
4	44818	9.11	407.70358930822
4	45375	9.21	410.48363614901
4	45932	9.31	413.24908009948
4	46489	9.41	415.9998498182
4	47046	9.51	418.73588904316
4	47603	9.61	421.45739307475
4	48160	9.71	424.16522323427
4	48717	9.81	426.86087128413
4	49274	9.91	429.54635433738
4	49839	10.01	432.22411023352
4	50396	10.11	434.89689468939
4	50953	10.21	437.56768046424
4	51510	10.31	440.239395772
4	52067	10.41	442.91456192181
4	52624	10.51	445.59525373954
4	53181	10.61	448.28317330504
4	53738	10.71	450.97971691665
4	54295	10.81	453.68603002531
4	54852	10.91	456.40305229979
4	55417	11.01	459.13155459573
4	55974	11.11	461.87216928326
4	56531	11.21	464.62541512615
4	57088	11.31	467.39171769135
4	57645	11.41	470.17142609202
4	58202	11.51	472.96482672252
4	58759	11.61	475.77215452598
4	59316	11.71	478.5936022376
4	59873	11.81	481.42932796738
4	60430	11.91	484.27944662118
4	60995	12.01	487.14375316923
4	61552	12.11	490.02140229556
4	62109	12.21	492.91096489882
4	62666	12.31	495.8105150884
4	63223	12.41	498.71771897555
4	63780	12.51	501.62992389666
4	64337	12.61	504.54424764354
4	64894	12.71	507.45780146706
4	65451	12.81	510.36803959278
4	66008	12.91	513.27286291595
4	66573	13.01	516.17054943955
4	67130	13.11	519.05968652626
4	67687	13.21	521.93911532144
4	68244	13.31	524.80788516068
4	68801	13.41	527.66521616802
4	69358	13.51	530.51046857356
4	69915	13.61	533.34311754316
4	70472	13.71	536.16273253
4	71029	13.81	538.96896033574
4	71586	13.91	541.76151121472
4	72151	14.01	544.5401474746
4	72708	14.11	547.30467412484
4	73265	14.21	550.0549312053
4	73822	14.31	552.79078749295
4	74379	14.41	555.51213612026
4	74936	14.51	558.21904362507
4	75493	14.61	560.91212531341
4	76050	14.71	563.59262491989
4	76607	14.81	566.26232826187
4	77164	14.91	568.92346882354
4	77729	15.01	571.578633207
4	78286	15.11	574.23066733062
4	78843	15.21	576.88251406815
4	79400	15.31	579.53688257283
4	79957	15.41	582.19601458038
4	80514	15.51	584.86174909493
4	81071	15.61	587.53559474037
4	81628	15.71	590.21878911375
4	82185	15.81	592.9123474757
4	82742	15.91	595.61710269355
4	83307	16.01	598.33373800862
4	83864	16.11	601.06281391673
4	84421	16.21	603.8047902197
4	84978	16.31	606.56004411517
4	85535	16.41	609.32888503656
4	86092	16.51	612.11156682708
4	86649	16.61	614.90829772655
4	87206	16.71	617.71924856418
4	87763	16.81	620.54455947938
4	88320	16.91	623.38434442086
4	88885	17.01	626.23850688461
4	89442	17.11	629.1063485004
4	89999	17.21	631.98655560694
4	90556	17.31	634.87728890744
4	91113	17.41	637.77627588982
4	91670	17.51	640.68090347953
4	92227	17.61	643.58831020915
4	92784	17.71	646.49557043361
4	93341	17.81	649.40003188873
4	93898	17.91	652.29950260268
4	94463	18.01	655.1921843951
4	95020	18.11	658.07660213178
4	95577	18.21	660.95154568888
4	96134	18.31	663.81602234338
4	96691	18.41	666.6692177166
4	97248	18.51	669.51046373442
4	97805	18.61	672.33921234334
4	98362	18.71	675.15501394863
4	98919	18.81	677.95749972598
4	99476	18.91	680.74636711103
4	100041	19.01	683.5213678956
4	100598	19.11	686.28229846255
4	101155	19.21	689.02899177489
4	101712	19.31	691.76131080411
4	102269	19.41	694.47914405784
4	102826	19.51	697.18257670199
4	103383	19.61	699.87227627353
4	103940	19.71	702.54953050665
4	104497	19.81	705.21615886106
4	105054	19.91	707.87441936341
4	105619	20.01	710.52691525293
4	106176	20.11	713.17650220788
4	106733	20.21	715.82611222023
4	107290	20.31	718.4784185861
4	107847	20.41	721.13563167651
4	108404	20.51	723.79956476554
4	108961	20.61	726.47170536953
4	109518	20.71	729.15327376996
4	110075	20.81	731.84527102267
4	110632	20.91	734.54851834213
4	111197	21.01	737.26368941021
4	111754	21.11	739.99133688071
4	112311	21.21	742.73191412222
4	112868	21.31	745.4857930549
4	113425	21.41	748.25327878281
4	113982	21.51	751.03462159758
4	114539	21.61	753.83002682547
4	115096	21.71	756.63966290557
4	115653	21.81	759.4636680166
4	116210	21.91	762.30215456454
4	116775	22.01	765.15503325721
4	117332	22.11	768.02162513486
4	117889	22.21	770.90063283729
4	118446	22.31	773.79022953741
4	119003	22.41	776.68815182629
4	119560	22.51	779.59179280735
4	120117	22.61	782.49829464611
4	120674	22.71	785.40472769524
4	121231	22.81	788.3084264497
4	121788	22.91	791.20718735468
4	122353	23.01	794.09920272772
4	122910	23.11	796.9829896396
4	123467	23.21	799.85733157187
4	124024	23.31	802.72123055566
4	124581	23.41	805.57386790891
4	125138	23.51	808.41457202721
4	125695	23.61	811.24279196099
4	126252	23.71	814.05807573973
4	126809	23.81	816.86005259017
4	127366	23.91	819.6484183491
4	127931	24.01	822.42292349676
4	128488	24.11	825.18336334001
4	129045	24.21	827.9295699592
4	129602	24.31	830.66140560175
4	130159	24.41	833.37875820007
4	130716	24.51	836.08171551475
4	131273	24.61	838.77095226642
4	131830	24.71	841.44776224296
4	132387	24.81	844.11396953728
4	132944	24.91	846.77183556081
4	133509	25.01	849.42396585274
4	134066	25.11	852.07321744721
4	134623	25.21	854.72252086145
4	135180	25.31	857.37454449154
4	135737	25.41	860.03149442157
4	136294	25.51	862.69518040889
4	136851	25.61	865.36708708485
4	137408	25.71	868.04843236427
4	137965	25.81	870.74021536149
4	138522	25.91	873.44325569826
4	139087	26.01	876.1582257499
4	139644	26.11	878.88567709834
4	140201	26.21	881.62606223291
4	140758	26.31	884.37975235243
4	141315	26.41	887.14705196925
4	141872	26.51	889.92821088953
4	142429	26.61	892.72343404135
4	142986	26.71	895.5328895371
4	143543	26.81	898.3567152875
4	144100	26.91	901.1950234857
4	144665	27.01	904.04772580273
4	145222	27.11	906.9141459448
4	145779	27.21	909.79298879834
4	146336	27.31	912.68242925576
4	146893	27.41	915.58020516436
4	147450	27.51	918.48371048121
4	148007	27.61	921.39008787517
4	148564	27.71	924.29640715181
4	149121	27.81	927.20000098793
4	149678	27.91	930.09866423806
4	150243	28.01	932.99058791485
4	150800	28.11	935.8742880186
4	151357	28.21	938.74854715269
4	151914	28.31	941.61236662787
4	152471	28.41	944.46492717111
4	153028	28.51	947.30555669317
4	153585	28.61	950.13370384679
4	154142	28.71	952.94891633518
4	154699	28.81	955.75082311743
4	155256	28.91	958.53911981078
4	155821	29.01	961.31355671533
4	156378	29.11	964.0739289902
4	156935	29.21	966.82006859452
4	157492	29.31	969.55183767626
4	158049	29.41	972.26912408886
4	158606	29.51	974.97201595037
4	159163	29.61	977.66118897077
4	159720	29.71	980.33793777167
4	160277	29.81	983.0040870841
4	160834	29.91	985.66189878567
4	161399	30.01	988.31397873238
4	161956	30.11	990.96318414515
4	162513	30.21	993.61244533819
4	163070	30.31	996.26443003286
4	163627	30.41	998.92134372296
4	164184	30.51	1001.5849956816
4	164741	30.61	1004.2568701428
4	165298	30.71	1006.9381846956
4	165855	30.81	1009.629938187
4	166412	30.91	1012.3329500194
4	166977	31.01	1015.0478923881
4	167534	31.11	1017.7753167277
4	168091	31.21	1020.5156754062
4	168648	31.31	1023.2693395232
4	169205	31.41	1026.0366135096
4	169762	31.51	1028.8177471046
4	170319	31.61	1031.6129451816
4	170876	31.71	1034.4223758079
4	171433	31.81	1037.2461768574
4	171990	31.91	1040.0844604939
4	172555	32.01	1042.9371385211
4	173112	32.11	1045.8035350123
4	173669	32.21	1048.6823551633
4	174226	32.31	1051.5717741035
4	174783	32.41	1054.469529853
4	175340	32.51	1057.3730164866
4	175897	32.61	1060.2793767424
4	176454	32.71	1063.1856803506
4	177011	32.81	1066.0892597377
4	177568	32.91	1068.9879095391
4	178133	33.01	1071.8798205877
4	178690	33.11	1074.7635087365
4	179247	33.21	1077.6377564678
4	179804	33.31	1080.5015649933
4	180361	33.41	1083.3541149585
4	180918	33.51	1086.1947342073
4	181475	33.61	1089.0228713378
4	182032	33.71	1091.8380740083
4	182589	33.81	1094.6399711409
4	183146	33.91	1097.4282583228
4	183711	34.01	1100.202685829
4	184268	34.11	1102.9630487986
4	184825	34.21	1105.7091791738
4	185382	34.31	1108.4409390889
4	185939	34.41	1111.1582163866
4	186496	34.51	1113.861099234
4	187053	34.61	1116.5502634775
4	187610	34.71	1119.2270038535
4	188167	34.81	1121.8931451808
4	188724	34.91	1124.5509494013
4	189289	35.01	1127.2030224145
4	189846	35.11	1129.8522214673
4	190403	35.21	1132.5014768457
4	190960	35.31	1135.1534561783
4	191517	35.41	1137.8103648775
4	192074	35.51	1140.4740121498
4	192631	35.61	1143.1458821745
4	193188	35.71	1145.8271924957
4	193745	35.81	1148.5189419236
4	194302	35.91	1151.2219498304
4	194867	36.01	1153.9368883868
4	195424	36.11	1156.6643090067
4	195981	36.21	1159.4046640417
4	196538	36.31	1162.1583245778
4	197095	36.41	1164.9255950344
4	197652	36.51	1167.7067251417
4	198209	36.61	1170.5019197654
4	198766	36.71	1173.3113469668
4	199323	36.81	1176.1351446146
4	199880	36.91	1178.9734248685
4	200445	37.01	1181.8260995505
3	232	1.11	27.777778619612
3	788	1.21	27.777778599967
3	1344	1.31	27.777778569105
3	1900	1.41	27.777778529595
3	2456	1.51	27.777778483698
3	3012	1.61	27.777778433385
3	3568	1.71	27.777778380352
3	4124	1.81	27.777778326039
3	4680	1.91	27.77777827165
3	5244	2.01	27.777778218173
3	5800	2.11	27.777778166406
3	6356	2.21	27.777778116967
3	6912	2.31	27.777778070327
3	7468	2.41	27.777778026819
3	8024	2.51	27.77777798666
3	8580	2.61	27.77777794997
3	9136	2.71	27.777777916782
3	9692	2.81	27.777777887063
3	10248	2.91	27.777777860724
3	10812	3.01	27.777777837628
3	11368	3.11	27.777777817609
3	11924	3.21	27.777777800471
3	12480	3.31	27.777777786005
3	13036	3.41	27.777777773991
3	13592	3.51	27.777777764203
3	14148	3.61	27.777777756416
3	14704	3.71	27.777777750412
3	15260	3.81	27.777777745977
3	15816	3.91	27.77777774291
3	16380	4.01	27.777777741018
3	16936	4.11	27.777777740126
3	17492	4.21	27.77777774007
3	18048	4.31	27.7777777407
3	18604	4.41	27.777777741882
3	19160	4.51	27.777777743495
3	19716	4.61	27.777777745434
3	20272	4.71	27.777777747604
3	20828	4.81	27.777777749925
3	21384	4.91	27.777777752329
3	21949	5.01	27.777777754758
3	22506	5.11	27.777846021452
3	23063	5.21	27.782059596653
3	23620	5.31	27.795775862036
3	24177	5.41	27.823056285431
3	24734	5.51	27.866721940626
3	25291	5.61	27.928063782047
3	25848	5.71	28.005327711868
3	26405	5.81	28.095658800357
3	26962	5.91	28.196709510244
3	27527	6.01	28.30655404332
3	28084	6.11	28.423612574297
3	28641	6.21	28.54658909619
3	29198	6.31	28.674420431867
3	29755	6.41	28.80623440578
3	30312	6.51	28.941313946553
3	30869	6.61	29.078388981218
3	31426	6.71	29.213351897492
3	31983	6.81	29.341385131305
3	32540	6.91	29.457981732945
3	33105	7.01	29.559024895864
3	33662	7.11	29.640856051762
3	34219	7.21	29.700331349918
3	34776	7.31	29.734866440411
3	35333	7.41	29.742492528104
3	35890	7.51	29.72320356612
3	36447	7.61	29.680432143932
3	37004	7.71	29.618396925437
3	37561	7.81	29.540558684394
3	38118	7.91	29.449756460671
3	38683	8.01	29.348319255796
3	39240	8.11	29.238157662213
3	39797	8.21	29.120839031188
3	40354	8.31	28.997649136664
3	40911	8.41	28.86964276111
3	41468	8.51	28.737685193533
3	42025	8.61	28.602486272297
3	42582	8.71	28.464628312097
3	43139	8.81	28.324589013804
3	43696	8.91	28.182760258515
3	44261	9.01	28.039463525222
3	44818	9.11	27.894962538668
3	45375	9.21	27.749473644999
3	45932	9.31	27.603174323409
3	46489	9.41	27.456210168651
3	47046	9.51	27.308798307138
3	47603	9.61	27.165456941051
3	48160	9.71	27.033088438825
3	48717	9.81	26.917629526736
3	49274	9.91	26.823966096352
3	49839	10.01	26.755942052805
3	50396	10.11	26.716381687291
3	50953	10.21	26.707072901132
3	51510	10.31	26.725876201723
3	52067	10.41	26.768249212414
3	52624	10.51	26.829957594714
3	53181	10.61	26.90752771624
3	53738	10.71	26.998109988574
3	54295	10.81	27.099366756701
3	54852	10.91	27.209380329303
3	55417	11.01	27.326577531569
3	55974	11.11	27.449667812217
3	56531	11.21	27.577592469696
3	57088	11.31	27.709482999991
3	57645	11.41	27.844626927306
3	58202	11.51	27.982439773336
3	58759	11.61	28.122442062297
3	59316	11.71	28.264240457043
3	59873	11.81	28.407512284116
3	60430	11.91	28.5515861915
3	60995	12.01	28.691427297144
3	61552	12.11	28.820647386679
3	62109	12.21	28.933709262078
3	62666	12.31	29.025954034973
3	63223	12.41	29.093614170539
3	63780	12.51	29.133813231597
3	64337	12.61	29.144595455085
3	64894	12.71	29.127327372936
3	65451	12.81	29.086213776084
3	66008	12.91	29.025538551786
3	66573	13.01	28.948815979671
3	67130	13.11	28.858928993054
3	67687	13.21	28.758242601384
3	68244	13.31	28.648696936139
3	68801	13.41	28.531883580877
3	69358	13.51	28.409108188466
3	69915	13.61	28.281441849017
3	70472	13.71	28.14976322948
3	71029	13.81	28.014793142794
3	71586	13.91	27.877122906629
3	72151	14.01	27.737237607429
3	72708	14.11	27.595535185033
3	73265	14.21	27.452342088714
3	73822	14.31	27.307926120577
3	74379	14.41	27.162546024449
3	74936	14.51	27.019330871672
3	75493	14.61	26.884559196285
3	76050	14.71	26.764258967301
3	76607	14.81	26.663521929862
3	77164	14.91	26.586493202078
3	77729	15.01	26.536374688625
3	78286	15.11	26.515419708568
3	78843	15.21	26.523668857685
3	79400	15.31	26.557383788157
3	79957	15.41	26.611989529068
3	80514	15.51	26.683733010807
3	81071	15.61	26.769535409097
3	81628	15.71	26.866871015679
3	82185	15.81	26.973667870074
3	82742	15.91	27.088226243028
3	83307	16.01	27.209151764536
3	83864	16.11	27.335300565535
3	84421	16.21	27.465734274985
3	84978	16.31	27.599683101797
3	85535	16.41	27.736515549161
3	86092	16.51	27.875713569743
3	86649	16.61	28.016852184292
3	87206	16.71	28.159582761803
3	87763	16.81	28.303619303423
3	88320	16.91	28.448676617794
3	88885	17.01	28.590971447913
3	89442	17.11	28.724006207991
3	89999	17.21	28.841930784337
3	90556	17.31	28.939810791426
3	91113	17.41	29.013638834762
3	91670	17.51	29.060332154734
3	92227	17.61	29.077746642843
3	92784	17.71	29.066350790361
3	93341	17.81	29.030054467132
3	93898	17.91	28.973331085061
3	94463	18.01	28.899850399997
3	95020	18.11	28.812622889912
3	95577	18.21	28.714118195293
3	96134	18.31	28.606362281514
3	96691	18.41	28.491017145825
3	97248	18.51	28.369446204845
3	97805	18.61	28.242767935079
3	98362	18.71	28.111899876827
3	98919	18.81	27.977594732713
3	99476	18.91	27.840469981056
3	100041	19.01	27.701032169144
3	100598	19.11	27.559696842186
3	101155	19.21	27.416804891984
3	101712	19.31	27.272635968552
3	102269	19.41	27.127465418657
3	102826	19.51	26.984833896344
3	103383	19.61	26.851159734065
3	103940	19.71	26.732358896103
3	104497	19.81	26.633424036685
3	105054	19.91	26.558413554113
3	105619	20.01	26.510454337265
3	106176	20.11	26.4917309481
3	106733	20.21	26.50196337238
3	107290	20.31	26.53730527926
3	107847	20.41	26.593245707503
3	108404	20.51	26.666084097724
3	108961	20.61	26.752784702327
3	109518	20.71	26.85085715093
3	110075	20.81	26.958258472424
3	110632	20.91	27.073312718935
3	111197	21.01	27.194645029473
3	111754	21.11	27.321127539161
3	112311	21.21	27.451835005966
3	112868	21.31	27.58600840916
3	113425	21.41	27.723025087377
3	113982	21.51	27.862374241425
3	114539	21.61	28.003636838057
3	115096	21.71	28.146469124058
3	115653	21.81	28.290589102065
3	116210	21.91	28.435718002991
3	116775	22.01	28.578225822974
3	117332	22.11	28.711663912643
3	117889	22.21	28.83014072939
3	118446	22.31	28.928685230703
3	119003	22.41	29.003257937223
3	119560	22.51	29.050748330675
3	120117	22.61	29.068986857173
3	120674	22.71	29.058323427182
3	121231	22.81	29.022627945499
3	121788	22.91	28.966397462768
3	122353	23.01	28.89332112684
3	122910	23.11	28.806425323882
3	123467	23.21	28.70819274464
3	124024	23.31	28.600660060247
3	124581	23.41	28.485498050406
3	125138	23.51	28.364077336405
3	125695	23.61	28.237522305085
3	126252	23.71	28.106755345282
3	126809	23.81	27.97253313711
3	127366	23.91	27.835476421811
3	127931	24.01	27.696094423411
3	128488	24.11	27.554804882971
3	129045	24.21	27.411950493662
3	129602	24.31	27.267812383245
3	130159	24.41	27.122668052051
3	130716	24.51	26.980114349492
3	131273	24.61	26.846588675637
3	131830	24.71	26.727991635756
3	132387	24.81	26.629302292308
3	132944	24.91	26.554567145367
3	133509	25.01	26.506902788277
3	134066	25.11	26.488484344384
3	134623	25.21	26.498987841018
3	135180	25.31	26.534552121643
3	135737	25.41	26.590674973809
3	136294	25.51	26.663663015186
3	136851	25.61	26.75048638586
3	137408	25.71	26.8486595454
3	137965	25.81	26.956143484941
3	138522	25.91	27.071265507027
3	139087	26.01	27.192653417141
3	139644	26.11	27.319181537848
3	140201	26.21	27.449926421574
3	140758	26.31	27.584130519676
3	141315	26.41	27.721172378408
3	141872	26.51	27.86054218925
3	142429	26.61	28.001821731647
3	142986	26.71	28.144667919078
3	143543	26.81	28.288799301099
3	144100	26.91	28.433937906563
3	144665	27.01	28.576474582405
3	145222	27.11	28.709967753931
3	145779	27.21	28.828520179047
3	146336	27.31	28.927155771518
3	146893	27.41	29.001830636677
3	147450	27.51	29.049430435655
3	148007	27.61	29.067782111948
3	148564	27.71	29.057219263808
3	149121	27.81	29.021606294275
3	149678	27.91	28.965443500247
3	150243	28.01	28.892422692631
3	150800	28.11	28.805572442229
3	151357	28.21	28.707377231949
3	151914	28.31	28.599875203121
3	152471	28.41	28.48473834152
3	153028	28.51	28.363338257835
3	153585	28.61	28.23680015056
3	154142	28.71	28.106047074368
3	154699	28.81	27.971836255593
3	155256	28.91	27.834788883566
3	155821	29.01	27.695414549904
3	156378	29.11	27.554131297218
3	156935	29.21	27.411282066058
3	157492	29.31	27.267148187119
3	158049	29.41	27.122007456828
3	158606	29.51	26.979464462325
3	159163	29.61	26.84595922909
3	159720	29.71	26.727390247301
3	160277	29.81	26.628734707679
3	160834	29.91	26.554037471766
3	161399	30.01	26.506413715074
3	161956	30.11	26.488037261118
3	162513	30.21	26.498578083731
3	163070	30.31	26.534172984659
3	163627	30.41	26.590320956139
3	164184	30.51	26.663329604102
3	164741	30.61	26.750169879354
3	165298	30.71	26.848356906536
3	165855	30.81	26.955852222374
3	166412	30.91	27.070983576984
3	166977	31.01	27.19237914302
3	167534	31.11	27.318913544249
3	168091	31.21	27.449663580191
3	168648	31.31	27.583871904903
3	169205	31.41	27.720917230929
3	169762	31.51	27.860289886159
3	170319	31.61	28.001571761945
3	170876	31.71	28.144419863567
3	171433	31.81	28.288552815892
3	171990	31.91	28.433692757653
3	172555	32.01	28.576233407281
3	173112	32.11	28.709734164377
3	173669	32.21	28.828297001933
3	174226	32.31	28.926945139104
3	174783	32.41	29.001634073159
3	175340	32.51	29.049248939068
3	175897	32.61	29.067616197954
3	176454	32.71	29.057067201598
3	177011	32.81	29.021465595353
3	177568	32.91	28.965312123179
3	178133	33.01	28.89229896273
3	178690	33.11	28.805454985668
3	179247	33.21	28.707264921712
3	179804	33.31	28.599767114663
3	180361	33.41	28.484633716391
3	180918	33.51	28.363236473841
3	181475	33.61	28.236700697287
3	182032	33.71	28.105949533098
3	182589	33.81	27.971740282831
3	183146	33.91	27.834694197528
3	183711	34.01	27.695320919427
3	184268	34.11	27.554038532669
3	184825	34.21	27.411190011872
3	185382	34.31	27.267056715677
3	185939	34.41	27.12191648129
3	186496	34.51	26.979374961472
3	187053	34.61	26.845872543266
3	187610	34.71	26.727307425566
3	188167	34.81	26.628656541322
3	188724	34.91	26.553964526421
3	189289	35.01	26.506346361114
3	189846	35.11	26.487975689908
3	190403	35.21	26.498521652962
3	190960	35.31	26.534120770842
3	191517	35.41	26.590272201691
3	192074	35.51	26.663283687543
3	192631	35.61	26.750126290851
3	193188	35.71	26.848315227851
3	193745	35.81	26.955812110404
3	194302	35.91	27.070944750266
3	194867	36.01	27.192341370657
3	195424	36.11	27.318876636823
3	195981	36.21	27.449627382316
3	196538	36.31	27.583836289107
3	197095	36.41	27.72088209264
3	197652	36.51	27.860255139592
3	198209	36.61	28.001537336726
3	198766	36.71	28.144385701967
3	199323	36.81	28.28851887055
3	199880	36.91	28.433658996343
3	200445	37.01	28.576200193231
1	232	1.11	0
1	788	1.21	0
1	1344	1.31	0
1	1900	1.41	0
1	2456	1.51	0
1	3012	1.61	0
1	3568	1.71	0
1	4124	1.81	0
1	4680	1.91	0
1	5244	2.01	0
1	5800	2.11	0
1	6356	2.21	0
1	6912	2.31	0
1	7468	2.41	0
1	8024	2.51	0
1	8580	2.61	0
1	9136	2.71	0
1	9692	2.81	0
1	10248	2.91	0
1	10812	3.01	0
1	11368	3.11	0
1	11924	3.21	0
1	12480	3.31	0
1	13036	3.41	0
1	13592	3.51	0
1	14148	3.61	0
1	14704	3.71	0
1	15260	3.81	0
1	15816	3.91	0
1	16380	4.01	0
1	16936	4.11	0
1	17492	4.21	0
1	18048	4.31	0
1	18604	4.41	0
1	19160	4.51	0
1	19716	4.61	0
1	20272	4.71	0
1	20828	4.81	0
1	21384	4.91	0
1	21949	5.01	0
1	22506	5.11	0
1	23063	5.21	0
1	23620	5.31	0
1	24177	5.41	0
1	24734	5.51	0
1	25291	5.61	0
1	25848	5.71	0
1	26405	5.81	0
1	26962	5.91	0
1	27527	6.01	0
1	28084	6.11	0
1	28641	6.21	0
1	29198	6.31	0
1	29755	6.41	0
1	30312	6.51	0
1	30869	6.61	0
1	31426	6.71	0
1	31983	6.81	0
1	32540	6.91	0
1	33105	7.01	0
1	33662	7.11	0
1	34219	7.21	0
1	34776	7.31	0
1	35333	7.41	0
1	35890	7.51	0
1	36447	7.61	0
1	37004	7.71	0
1	37561	7.81	0
1	38118	7.91	0
1	38683	8.01	0
1	39240	8.11	0
1	39797	8.21	0
1	40354	8.31	0
1	40911	8.41	0
1	41468	8.51	0
1	42025	8.61	0
1	42582	8.71	0
1	43139	8.81	0
1	43696	8.91	0
1	44261	9.01	0
1	44818	9.11	0
1	45375	9.21	0
1	45932	9.31	0
1	46489	9.41	0
1	47046	9.51	0
1	47603	9.61	0
1	48160	9.71	0
1	48717	9.81	0
1	49274	9.91	0
1	49839	10.01	0
1	50396	10.11	0
1	50953	10.21	0
1	51510	10.31	0
1	52067	10.41	0
1	52624	10.51	0
1	53181	10.61	0
1	53738	10.71	0
1	54295	10.81	0
1	54852	10.91	0
1	55417	11.01	0
1	55974	11.11	0
1	56531	11.21	0
1	57088	11.31	0
1	57645	11.41	0
1	58202	11.51	0
1	58759	11.61	0
1	59316	11.71	0
1	59873	11.81	0
1	60430	11.91	0
1	60995	12.01	0
1	61552	12.11	0
1	62109	12.21	0
1	62666	12.31	0
1	63223	12.41	0
1	63780	12.51	0
1	64337	12.61	0
1	64894	12.71	0
1	65451	12.81	0
1	66008	12.91	0
1	66573	13.01	0
1	67130	13.11	0
1	67687	13.21	0
1	68244	13.31	0
1	68801	13.41	0
1	69358	13.51	0
1	69915	13.61	0
1	70472	13.71	0
1	71029	13.81	0
1	71586	13.91	0
1	72151	14.01	0
1	72708	14.11	0
1	73265	14.21	0
1	73822	14.31	0
1	74379	14.41	0
1	74936	14.51	0
1	75493	14.61	0
1	76050	14.71	0
1	76607	14.81	0
1	77164	14.91	0
1	77729	15.01	0
1	78286	15.11	0
1	78843	15.21	0
1	79400	15.31	0
1	79957	15.41	0
1	80514	15.51	0
1	81071	15.61	0
1	81628	15.71	0
1	82185	15.81	0
1	82742	15.91	0
1	83307	16.01	0
1	83864	16.11	0
1	84421	16.21	0
1	84978	16.31	0
1	85535	16.41	0
1	86092	16.51	0
1	86649	16.61	0
1	87206	16.71	0
1	87763	16.81	0
1	88320	16.91	0
1	88885	17.01	0
1	89442	17.11	0
1	89999	17.21	0
1	90556	17.31	0
1	91113	17.41	0
1	91670	17.51	0
1	92227	17.61	0
1	92784	17.71	0
1	93341	17.81	0
1	93898	17.91	0
1	94463	18.01	0
1	95020	18.11	0
1	95577	18.21	0
1	96134	18.31	0
1	96691	18.41	0
1	97248	18.51	0
1	97805	18.61	0
1	98362	18.71	0
1	98919	18.81	0
1	99476	18.91	0
1	100041	19.01	0
1	100598	19.11	0
1	101155	19.21	0
1	101712	19.31	0
1	102269	19.41	0
1	102826	19.51	0
1	103383	19.61	0
1	103940	19.71	0
1	104497	19.81	0
1	105054	19.91	0
1	105619	20.01	0
1	106176	20.11	0
1	106733	20.21	0
1	107290	20.31	0
1	107847	20.41	0
1	108404	20.51	0
1	108961	20.61	0
1	109518	20.71	0
1	110075	20.81	0
1	110632	20.91	0
1	111197	21.01	0
1	111754	21.11	0
1	112311	21.21	0
1	112868	21.31	0
1	113425	21.41	0
1	113982	21.51	0
1	114539	21.61	0
1	115096	21.71	0
1	115653	21.81	0
1	116210	21.91	0
1	116775	22.01	0
1	117332	22.11	0
1	117889	22.21	0
1	118446	22.31	0
1	119003	22.41	0
1	119560	22.51	0
1	120117	22.61	0
1	120674	22.71	0
1	121231	22.81	0
1	121788	22.91	0
1	122353	23.01	0
1	122910	23.11	0
1	123467	23.21	0
1	124024	23.31	0
1	124581	23.41	0
1	125138	23.51	0
1	125695	23.61	0
1	126252	23.71	0
1	126809	23.81	0
1	127366	23.91	0
1	127931	24.01	0
1	128488	24.11	0
1	129045	24.21	0
1	129602	24.31	0
1	130159	24.41	0
1	130716	24.51	0
1	131273	24.61	0
1	131830	24.71	0
1	132387	24.81	0
1	132944	24.91	0
1	133509	25.01	0
1	134066	25.11	0
1	134623	25.21	0
1	135180	25.31	0
1	135737	25.41	0
1	136294	25.51	0
1	136851	25.61	0
1	137408	25.71	0
1	137965	25.81	0
1	138522	25.91	0
1	139087	26.01	0
1	139644	26.11	0
1	140201	26.21	0
1	140758	26.31	0
1	141315	26.41	0
1	141872	26.51	0
1	142429	26.61	0
1	142986	26.71	0
1	143543	26.81	0
1	144100	26.91	0
1	144665	27.01	0
1	145222	27.11	0
1	145779	27.21	0
1	146336	27.31	0
1	146893	27.41	0
1	147450	27.51	0
1	148007	27.61	0
1	148564	27.71	0
1	149121	27.81	0
1	149678	27.91	0
1	150243	28.01	0
1	150800	28.11	0
1	151357	28.21	0
1	151914	28.31	0
1	152471	28.41	0
1	153028	28.51	0
1	153585	28.61	0
1	154142	28.71	0
1	154699	28.81	0
1	155256	28.91	0
1	155821	29.01	0
1	156378	29.11	0
1	156935	29.21	0
1	157492	29.31	0
1	158049	29.41	0
1	158606	29.51	0
1	159163	29.61	0
1	159720	29.71	0
1	160277	29.81	0
1	160834	29.91	0
1	161399	30.01	0
1	161956	30.11	0
1	162513	30.21	0
1	163070	30.31	0
1	163627	30.41	0
1	164184	30.51	0
1	164741	30.61	0
1	165298	30.71	0
1	165855	30.81	0
1	166412	30.91	0
1	166977	31.01	0
1	167534	31.11	0
1	168091	31.21	0
1	168648	31.31	0
1	169205	31.41	0
1	169762	31.51	0
1	170319	31.61	0
1	170876	31.71	0
1	171433	31.81	0
1	171990	31.91	0
1	172555	32.01	0
1	173112	32.11	0
1	173669	32.21	0
1	174226	32.31	0
1	174783	32.41	0
1	175340	32.51	0
1	175897	32.61	0
1	176454	32.71	0
1	177011	32.81	0
1	177568	32.91	0
1	178133	33.01	0
1	178690	33.11	0
1	179247	33.21	0
1	179804	33.31	0
1	180361	33.41	0
1	180918	33.51	0
1	181475	33.61	0
1	182032	33.71	0
1	182589	33.81	0
1	183146	33.91	0
1	183711	34.01	0
1	184268	34.11	0
1	184825	34.21	0
1	185382	34.31	0
1	185939	34.41	0
1	186496	34.51	0
1	187053	34.61	0
1	187610	34.71	0
1	188167	34.81	0
1	188724	34.91	0
1	189289	35.01	0
1	189846	35.11	0
1	190403	35.21	0
1	190960	35.31	0
1	191517	35.41	0
1	192074	35.51	0
1	192631	35.61	0
1	193188	35.71	0
1	193745	35.81	0
1	194302	35.91	0
1	194867	36.01	0
1	195424	36.11	0
1	195981	36.21	0
1	196538	36.31	0
1	197095	36.41	0
1	197652	36.51	0
1	198209	36.61	0
1	198766	36.71	0
1	199323	36.81	0
1	199880	36.91	0
1	200445	37.01	0
0	232	1.11	-1
0	788	1.21	-1
0	1344	1.31	-1
0	1900	1.41	-1
0	2456	1.51	-1
0	3012	1.61	-1
0	3568	1.71	-1
0	4124	1.81	-1
0	4680	1.91	-1
0	5244	2.01	-1
0	5800	2.11	-1
0	6356	2.21	-1
0	6912	2.31	-1
0	7468	2.41	-1
0	8024	2.51	-1
0	8580	2.61	-1
0	9136	2.71	-1
0	9692	2.81	-1
0	10248	2.91	-1
0	10812	3.01	-1
0	11368	3.11	-1
0	11924	3.21	-1
0	12480	3.31	-1
0	13036	3.41	-1
0	13592	3.51	-1
0	14148	3.61	-1
0	14704	3.71	-1
0	15260	3.81	-1
0	15816	3.91	-1
0	16380	4.01	-1
0	16936	4.11	-1
0	17492	4.21	-1
0	18048	4.31	-1
0	18604	4.41	-1
0	19160	4.51	-1
0	19716	4.61	-1
0	20272	4.71	-1
0	20828	4.81	-1
0	21384	4.91	-1
0	21949	5.01	-1
0	22506	5.11	-1
0	23063	5.21	-1
0	23620	5.31	-1
0	24177	5.41	-1
0	24734	5.51	-1
0	25291	5.61	-1
0	25848	5.71	-1
0	26405	5.81	-1
0	26962	5.91	-1
0	27527	6.01	-1
0	28084	6.11	-1
0	28641	6.21	-1
0	29198	6.31	-1
0	29755	6.41	-1
0	30312	6.51	-1
0	30869	6.61	-1
0	31426	6.71	-1
0	31983	6.81	-1
0	32540	6.91	-1
0	33105	7.01	-1
0	33662	7.11	-1
0	34219	7.21	-1
0	34776	7.31	-1
0	35333	7.41	-1
0	35890	7.51	-1
0	36447	7.61	-1
0	37004	7.71	-1
0	37561	7.81	-1
0	38118	7.91	-1
0	38683	8.01	-1
0	39240	8.11	-1
0	39797	8.21	-1
0	40354	8.31	-1
0	40911	8.41	-1
0	41468	8.51	-1
0	42025	8.61	-1
0	42582	8.71	-1
0	43139	8.81	-1
0	43696	8.91	-1
0	44261	9.01	-1
0	44818	9.11	-1
0	45375	9.21	-1
0	45932	9.31	-1
0	46489	9.41	-1
0	47046	9.51	-1
0	47603	9.61	-1
0	48160	9.71	-1
0	48717	9.81	-1
0	49274	9.91	-1
0	49839	10.01	-1
0	50396	10.11	-1
0	50953	10.21	-1
0	51510	10.31	-1
0	52067	10.41	-1
0	52624	10.51	-1
0	53181	10.61	-1
0	53738	10.71	-1
0	54295	10.81	-1
0	54852	10.91	-1
0	55417	11.01	-1
0	55974	11.11	-1
0	56531	11.21	-1
0	57088	11.31	-1
0	57645	11.41	-1
0	58202	11.51	-1
0	58759	11.61	-1
0	59316	11.71	-1
0	59873	11.81	-1
0	60430	11.91	-1
0	60995	12.01	-1
0	61552	12.11	-1
0	62109	12.21	-1
0	62666	12.31	-1
0	63223	12.41	-1
0	63780	12.51	-1
0	64337	12.61	-1
0	64894	12.71	-1
0	65451	12.81	-1
0	66008	12.91	-1
0	66573	13.01	-1
0	67130	13.11	-1
0	67687	13.21	-1
0	68244	13.31	-1
0	68801	13.41	-1
0	69358	13.51	-1
0	69915	13.61	-1
0	70472	13.71	-1
0	71029	13.81	-1
0	71586	13.91	-1
0	72151	14.01	-1
0	72708	14.11	-1
0	73265	14.21	-1
0	73822	14.31	-1
0	74379	14.41	-1
0	74936	14.51	-1
0	75493	14.61	-1
0	76050	14.71	-1
0	76607	14.81	-1
0	77164	14.91	-1
0	77729	15.01	-1
0	78286	15.11	-1
0	78843	15.21	-1
0	79400	15.31	-1
0	79957	15.41	-1
0	80514	15.51	-1
0	81071	15.61	-1
0	81628	15.71	-1
0	82185	15.81	-1
0	82742	15.91	-1
0	83307	16.01	-1
0	83864	16.11	-1
0	84421	16.21	-1
0	84978	16.31	-1
0	85535	16.41	-1
0	86092	16.51	-1
0	86649	16.61	-1
0	87206	16.71	-1
0	87763	16.81	-1
0	88320	16.91	-1
0	88885	17.01	-1
0	89442	17.11	-1
0	89999	17.21	-1
0	90556	17.31	-1
0	91113	17.41	-1
0	91670	17.51	-1
0	92227	17.61	-1
0	92784	17.71	-1
0	93341	17.81	-1
0	93898	17.91	-1
0	94463	18.01	-1
0	95020	18.11	-1
0	95577	18.21	-1
0	96134	18.31	-1
0	96691	18.41	-1
0	97248	18.51	-1
0	97805	18.61	-1
0	98362	18.71	-1
0	98919	18.81	-1
0	99476	18.91	-1
0	100041	19.01	-1
0	100598	19.11	-1
0	101155	19.21	-1
0	101712	19.31	-1
0	102269	19.41	-1
0	102826	19.51	-1
0	103383	19.61	-1
0	103940	19.71	-1
0	104497	19.81	-1
0	105054	19.91	-1
0	105619	20.01	-1
0	106176	20.11	-1
0	106733	20.21	-1
0	107290	20.31	-1
0	107847	20.41	-1
0	108404	20.51	-1
0	108961	20.61	-1
0	109518	20.71	-1
0	110075	20.81	-1
0	110632	20.91	-1
0	111197	21.01	-1
0	111754	21.11	-1
0	112311	21.21	-1
0	112868	21.31	-1
0	113425	21.41	-1
0	113982	21.51	-1
0	114539	21.61	-1
0	115096	21.71	-1
0	115653	21.81	-1
0	116210	21.91	-1
0	116775	22.01	-1
0	117332	22.11	-1
0	117889	22.21	-1
0	118446	22.31	-1
0	119003	22.41	-1
0	119560	22.51	-1
0	120117	22.61	-1
0	120674	22.71	-1
0	121231	22.81	-1
0	121788	22.91	-1
0	122353	23.01	-1
0	122910	23.11	-1
0	123467	23.21	-1
0	124024	23.31	-1
0	124581	23.41	-1
0	125138	23.51	-1
0	125695	23.61	-1
0	126252	23.71	-1
0	126809	23.81	-1
0	127366	23.91	-1
0	127931	24.01	-1
0	128488	24.11	-1
0	129045	24.21	-1
0	129602	24.31	-1
0	130159	24.41	-1
0	130716	24.51	-1
0	131273	24.61	-1
0	131830	24.71	-1
0	132387	24.81	-1
0	132944	24.91	-1
0	133509	25.01	-1
0	134066	25.11	-1
0	134623	25.21	-1
0	135180	25.31	-1
0	135737	25.41	-1
0	136294	25.51	-1
0	136851	25.61	-1
0	137408	25.71	-1
0	137965	25.81	-1
0	138522	25.91	-1
0	139087	26.01	-1
0	139644	26.11	-1
0	140201	26.21	-1
0	140758	26.31	-1
0	141315	26.41	-1
0	141872	26.51	-1
0	142429	26.61	-1
0	142986	26.71	-1
0	143543	26.81	-1
0	144100	26.91	-1
0	144665	27.01	-1
0	145222	27.11	-1
0	145779	27.21	-1
0	146336	27.31	-1
0	146893	27.41	-1
0	147450	27.51	-1
0	148007	27.61	-1
0	148564	27.71	-1
0	149121	27.81	-1
0	149678	27.91	-1
0	150243	28.01	-1
0	150800	28.11	-1
0	151357	28.21	-1
0	151914	28.31	-1
0	152471	28.41	-1
0	153028	28.51	-1
0	153585	28.61	-1
0	154142	28.71	-1
0	154699	28.81	-1
0	155256	28.91	-1
0	155821	29.01	-1
0	156378	29.11	-1
0	156935	29.21	-1
0	157492	29.31	-1
0	158049	29.41	-1
0	158606	29.51	-1
0	159163	29.61	-1
0	159720	29.71	-1
0	160277	29.81	-1
0	160834	29.91	-1
0	161399	30.01	-1
0	161956	30.11	-1
0	162513	30.21	-1
0	163070	30.31	-1
0	163627	30.41	-1
0	164184	30.51	-1
0	164741	30.61	-1
0	165298	30.71	-1
0	165855	30.81	-1
0	166412	30.91	-1
0	166977	31.01	-1
0	167534	31.11	-1
0	168091	31.21	-1
0	168648	31.31	-1
0	169205	31.41	-1
0	169762	31.51	-1
0	170319	31.61	-1
0	170876	31.71	-1
0	171433	31.81	-1
0	171990	31.91	-1
0	172555	32.01	-1
0	173112	32.11	-1
0	173669	32.21	-1
0	174226	32.31	-1
0	174783	32.41	-1
0	175340	32.51	-1
0	175897	32.61	-1
0	176454	32.71	-1
0	177011	32.81	-1
0	177568	32.91	-1
0	178133	33.01	-1
0	178690	33.11	-1
0	179247	33.21	-1
0	179804	33.31	-1
0	180361	33.41	-1
0	180918	33.51	-1
0	181475	33.61	-1
0	182032	33.71	-1
0	182589	33.81	-1
0	183146	33.91	-1
0	183711	34.01	-1
0	184268	34.11	-1
0	184825	34.21	-1
0	185382	34.31	-1
0	185939	34.41	-1
0	186496	34.51	-1
0	187053	34.61	-1
0	187610	34.71	-1
0	188167	34.81	-1
0	188724	34.91	-1
0	189289	35.01	-1
0	189846	35.11	-1
0	190403	35.21	-1
0	190960	35.31	-1
0	191517	35.41	-1
0	192074	35.51	-1
0	192631	35.61	-1
0	193188	35.71	-1
0	193745	35.81	-1
0	194302	35.91	-1
0	194867	36.01	-1
0	195424	36.11	-1
0	195981	36.21	-1
0	196538	36.31	-1
0	197095	36.41	-1
0	197652	36.51	-1
0	198209	36.61	-1
0	198766	36.71	-1
0	199323	36.81	-1
0	199880	36.91	-1
0	200445	37.01	-1
2	232	1.11	0
2	788	1.21	0
2	1344	1.31	0
2	1900	1.41	0
2	2456	1.51	0
2	3012	1.61	0
2	3568	1.71	0
2	4124	1.81	0
2	4680	1.91	0
2	5244	2.01	0
2	5800	2.11	0
2	6356	2.21	0
2	6912	2.31	0
2	7468	2.41	0
2	8024	2.51	0
2	8580	2.61	0
2	9136	2.71	0
2	9692	2.81	0
2	10248	2.91	0
2	10812	3.01	0
2	11368	3.11	0
2	11924	3.21	0
2	12480	3.31	0
2	13036	3.41	0
2	13592	3.51	0
2	14148	3.61	0
2	14704	3.71	0
2	15260	3.81	0
2	15816	3.91	0
2	16380	4.01	0
2	16936	4.11	0
2	17492	4.21	0
2	18048	4.31	0
2	18604	4.41	0
2	19160	4.51	0
2	19716	4.61	0
2	20272	4.71	0
2	20828	4.81	0
2	21384	4.91	0
2	21949	5.01	0
2	22506	5.11	0
2	23063	5.21	0
2	23620	5.31	0
2	24177	5.41	0
2	24734	5.51	0
2	25291	5.61	0
2	25848	5.71	0
2	26405	5.81	0
2	26962	5.91	0
2	27527	6.01	0
2	28084	6.11	0
2	28641	6.21	0
2	29198	6.31	0
2	29755	6.41	0
2	30312	6.51	0
2	30869	6.61	0
2	31426	6.71	0
2	31983	6.81	0
2	32540	6.91	0
2	33105	7.01	0
2	33662	7.11	0
2	34219	7.21	0
2	34776	7.31	0
2	35333	7.41	0
2	35890	7.51	0
2	36447	7.61	0
2	37004	7.71	0
2	37561	7.81	0
2	38118	7.91	0
2	38683	8.01	0
2	39240	8.11	0
2	39797	8.21	0
2	40354	8.31	0
2	40911	8.41	0
2	41468	8.51	0
2	42025	8.61	0
2	42582	8.71	0
2	43139	8.81	0
2	43696	8.91	0
2	44261	9.01	0
2	44818	9.11	0
2	45375	9.21	0
2	45932	9.31	0
2	46489	9.41	0
2	47046	9.51	0
2	47603	9.61	0
2	48160	9.71	0
2	48717	9.81	0
2	49274	9.91	0
2	49839	10.01	0
2	50396	10.11	0
2	50953	10.21	0
2	51510	10.31	0
2	52067	10.41	0
2	52624	10.51	0
2	53181	10.61	0
2	53738	10.71	0
2	54295	10.81	0
2	54852	10.91	0
2	55417	11.01	0
2	55974	11.11	0
2	56531	11.21	0
2	57088	11.31	0
2	57645	11.41	0
2	58202	11.51	0
2	58759	11.61	0
2	59316	11.71	0
2	59873	11.81	0
2	60430	11.91	0
2	60995	12.01	0
2	61552	12.11	0
2	62109	12.21	0
2	62666	12.31	0
2	63223	12.41	0
2	63780	12.51	0
2	64337	12.61	0
2	64894	12.71	0
2	65451	12.81	0
2	66008	12.91	0
2	66573	13.01	0
2	67130	13.11	0
2	67687	13.21	0
2	68244	13.31	0
2	68801	13.41	0
2	69358	13.51	0
2	69915	13.61	0
2	70472	13.71	0
2	71029	13.81	0
2	71586	13.91	0
2	72151	14.01	0
2	72708	14.11	0
2	73265	14.21	0
2	73822	14.31	0
2	74379	14.41	0
2	74936	14.51	0
2	75493	14.61	0
2	76050	14.71	0
2	76607	14.81	0
2	77164	14.91	0
2	77729	15.01	0
2	78286	15.11	0
2	78843	15.21	0
2	79400	15.31	0
2	79957	15.41	0
2	80514	15.51	0
2	81071	15.61	0
2	81628	15.71	0
2	82185	15.81	0
2	82742	15.91	0
2	83307	16.01	0
2	83864	16.11	0
2	84421	16.21	0
2	84978	16.31	0
2	85535	16.41	0
2	86092	16.51	0
2	86649	16.61	0
2	87206	16.71	0
2	87763	16.81	0
2	88320	16.91	0
2	88885	17.01	0
2	89442	17.11	0
2	89999	17.21	0
2	90556	17.31	0
2	91113	17.41	0
2	91670	17.51	0
2	92227	17.61	0
2	92784	17.71	0
2	93341	17.81	0
2	93898	17.91	0
2	94463	18.01	0
2	95020	18.11	0
2	95577	18.21	0
2	96134	18.31	0
2	96691	18.41	0
2	97248	18.51	0
2	97805	18.61	0
2	98362	18.71	0
2	98919	18.81	0
2	99476	18.91	0
2	100041	19.01	0
2	100598	19.11	0
2	101155	19.21	0
2	101712	19.31	0
2	102269	19.41	0
2	102826	19.51	0
2	103383	19.61	0
2	103940	19.71	0
2	104497	19.81	0
2	105054	19.91	0
2	105619	20.01	0
2	106176	20.11	0
2	106733	20.21	0
2	107290	20.31	0
2	107847	20.41	0
2	108404	20.51	0
2	108961	20.61	0
2	109518	20.71	0
2	110075	20.81	0
2	110632	20.91	0
2	111197	21.01	0
2	111754	21.11	0
2	112311	21.21	0
2	112868	21.31	0
2	113425	21.41	0
2	113982	21.51	0
2	114539	21.61	0
2	115096	21.71	0
2	115653	21.81	0
2	116210	21.91	0
2	116775	22.01	0
2	117332	22.11	0
2	117889	22.21	0
2	118446	22.31	0
2	119003	22.41	0
2	119560	22.51	0
2	120117	22.61	0
2	120674	22.71	0
2	121231	22.81	0
2	121788	22.91	0
2	122353	23.01	0
2	122910	23.11	0
2	123467	23.21	0
2	124024	23.31	0
2	124581	23.41	0
2	125138	23.51	0
2	125695	23.61	0
2	126252	23.71	0
2	126809	23.81	0
2	127366	23.91	0
2	127931	24.01	0
2	128488	24.11	0
2	129045	24.21	0
2	129602	24.31	0
2	130159	24.41	0
2	130716	24.51	0
2	131273	24.61	0
2	131830	24.71	0
2	132387	24.81	0
2	132944	24.91	0
2	133509	25.01	0
2	134066	25.11	0
2	134623	25.21	0
2	135180	25.31	0
2	135737	25.41	0
2	136294	25.51	0
2	136851	25.61	0
2	137408	25.71	0
2	137965	25.81	0
2	138522	25.91	0
2	139087	26.01	0
2	139644	26.11	0
2	140201	26.21	0
2	140758	26.31	0
2	141315	26.41	0
2	141872	26.51	0
2	142429	26.61	0
2	142986	26.71	0
2	143543	26.81	0
2	144100	26.91	0
2	144665	27.01	0
2	145222	27.11	0
2	145779	27.21	0
2	146336	27.31	0
2	146893	27.41	0
2	147450	27.51	0
2	148007	27.61	0
2	148564	27.71	0
2	149121	27.81	0
2	149678	27.91	0
2	150243	28.01	0
2	150800	28.11	0
2	151357	28.21	0
2	151914	28.31	0
2	152471	28.41	0
2	153028	28.51	0
2	153585	28.61	0
2	154142	28.71	0
2	154699	28.81	0
2	155256	28.91	0
2	155821	29.01	0
2	156378	29.11	0
2	156935	29.21	0
2	157492	29.31	0
2	158049	29.41	0
2	158606	29.51	0
2	159163	29.61	0
2	159720	29.71	0
2	160277	29.81	0
2	160834	29.91	0
2	161399	30.01	0
2	161956	30.11	0
2	162513	30.21	0
2	163070	30.31	0
2	163627	30.41	0
2	164184	30.51	0
2	164741	30.61	0
2	165298	30.71	0
2	165855	30.81	0
2	166412	30.91	0
2	166977	31.01	0
2	167534	31.11	0
2	168091	31.21	0
2	168648	31.31	0
2	169205	31.41	0
2	169762	31.51	0
2	170319	31.61	0
2	170876	31.71	0
2	171433	31.81	0
2	171990	31.91	0
2	172555	32.01	0
2	173112	32.11	0
2	173669	32.21	0
2	174226	32.31	0
2	174783	32.41	0
2	175340	32.51	0
2	175897	32.61	0
2	176454	32.71	0
2	177011	32.81	0
2	177568	32.91	0
2	178133	33.01	0
2	178690	33.11	0
2	179247	33.21	0
2	179804	33.31	0
2	180361	33.41	0
2	180918	33.51	0
2	181475	33.61	0
2	182032	33.71	0
2	182589	33.81	0
2	183146	33.91	0
2	183711	34.01	0
2	184268	34.11	0
2	184825	34.21	0
2	185382	34.31	0
2	185939	34.41	0
2	186496	34.51	0
2	187053	34.61	0
2	187610	34.71	0
2	188167	34.81	0
2	188724	34.91	0
2	189289	35.01	0
2	189846	35.11	0
2	190403	35.21	0
2	190960	35.31	0
2	191517	35.41	0
2	192074	35.51	0
2	192631	35.61	0
2	193188	35.71	0
2	193745	35.81	0
2	194302	35.91	0
2	194867	36.01	0
2	195424	36.11	0
2	195981	36.21	0
2	196538	36.31	0
2	197095	36.41	0
2	197652	36.51	0
2	198209	36.61	0
2	198766	36.71	0
2	199323	36.81	0
2	199880	36.91	0
2	200445	37.01	0
10	5056	2	0
10	10624	3	0
10	16192	4	0
10	21761	5	0
10	27338	6	0
10	32916	7	0
10	38494	8	0
10	44072	9	0
10	49650	10	0
10	55228	11	0
10	60806	12	0
10	66384	13	0
10	71962	14	0
10	77540	15	0
10	83118	16	0
10	88696	17	0
10	94274	18	0
10	99852	19	0
10	105430	20	0
10	111008	21	0
10	116586	22	0
10	122164	23	0
10	127742	24	0
10	133320	25	0
10	138898	26	0
10	144476	27	0
10	150054	28	0
10	155632	29	0
10	161210	30	0
10	166788	31	0
10	172366	32	0
10	177944	33	0
10	183522	34	0
10	189100	35	0
10	194678	36	0
10	200256	37	0
9	5056	2	0.022758873981
9	10624	3	0.02625275103
9	16192	4	0.02625275103
9	21761	5	0.02623975103
9	27338	6	0.026252747944
9	32916	7	0.026252682575
9	38494	8	0.026252466427
9	44072	9	0.026252247887
9	49650	10	0.026239278854
9	55228	11	0.026252575035
9	60806	12	0.026252836971
9	66384	13	0.026252798786
9	71962	14	0.026252578732
9	77540	15	0.026239520607
9	83118	16	0.026252727442
9	88696	17	0.026252925386
9	94274	18	0.026252852048
9	99852	19	0.026252614726
9	105430	20	0.026239547816
9	111008	21	0.026252749756
9	116586	22	0.026252943521
9	122164	23	0.026252866365
9	127742	24	0.02625262546
9	133320	25	0.02623955542
9	138898	26	0.026252754939
9	144476	27	0.026252946895
9	150054	28	0.026252868514
9	155632	29	0.026239626822
9	161210	30	0.026252556278
9	166788	31	0.02625275789
9	172366	32	0.026252992446
9	177944	33	0.026253053451
9	183522	34	0.026240031529
9	189100	35	0.02625324977
9	194678	36	0.026253902224
9	200256	37	0.026241825641
8	5056	2	0
8	10624	3	0
8	16192	4	0
8	21761	5	0
8	27338	6	0
8	32916	7	0
8	38494	8	0
8	44072	9	0
8	49650	10	0
8	55228	11	0
8	60806	12	0
8	66384	13	0
8	71962	14	0
8	77540	15	0
8	83118	16	0
8	88696	17	0
8	94274	18	0
8	99852	19	0
8	105430	20	0
8	111008	21	0
8	116586	22	0
8	122164	23	0
8	127742	24	0
8	133320	25	0
8	138898	26	0
8	144476	27	0
8	150054	28	0
8	155632	29	0
8	161210	30	0
8	166788	31	0
8	172366	32	0
8	177944	33	0
8	183522	34	0
8	189100	35	0
8	194678	36	0
8	200256	37	0
29	233	1.11	0
29	789	1.21	-1.2497974798627e-07
29	1345	1.31	-3.9550569772489e-07
29	1901	1.41	-6.1061668025956e-07
29	2457	1.51	-7.7699984892715e-07
29	3013	1.61	-9.0084337419588e-07
[...]
101	130225	24.469561946992	0.099999746493
101	130782	24.569561692788	0.099999745796
101	131339	24.669561437547	0.099999744759
101	131896	24.769561180947	0.0999997434
101	132453	24.869560922682	0.099999741735
101	133010	24.969560662478	0.099999739796
101	133575	25.069560400087	0.099999737609
101	134132	25.169560135308	0.099999735221
101	134689	25.269559867976	0.099999732668
101	135246	25.369559597979	0.099999730003
101	135803	25.469559325242	0.099999727263
101	136360	25.569559049742	0.0999997245
101	136917	25.669558771494	0.099999721752
101	137474	25.76955849056	0.099999719066
101	138031	25.869558207045	0.099999716485
101	138588	25.969557921084	0.099999714039
101	139153	26.069557632854	0.09999971177
101	139710	26.169557342563	0.099999709709
101	140267	26.269557050449	0.099999707886
101	140824	26.369556756773	0.099999706324
101	141381	26.469556461819	0.099999705046
101	141938	26.56955616589	0.099999704071
101	142495	26.669555869303	0.099999703413
101	143052	26.769555572385	0.099999703082
101	143609	26.869555275475	0.09999970309
101	144166	26.969554978917	0.099999703442
101	144731	27.069554683052	0.099999704135
101	145288	27.169554388216	0.099999705164
101	145845	27.269567094734	0.100012706518
101	146402	27.369566802911	0.099999708177
101	146959	27.469566513023	0.099999710112
101	147516	27.569566225315	0.099999712292
101	148073	27.669565939993	0.099999714678
101	148630	27.769565657219	0.099999717226
101	149187	27.869565377108	0.099999719889
101	149744	27.969565099731	0.099999722623
101	150309	28.069564825115	0.099999725384
101	150866	28.169564553242	0.099999728127
101	151423	28.269564284051	0.099999730809
101	151980	28.369564017443	0.099999733392
101	152537	28.469563753274	0.099999735831
101	153094	28.569563491369	0.099999738095
101	153651	28.669563231522	0.099999740153
101	154208	28.769562973497	0.099999741975
101	154765	28.86956271703	0.099999743533
101	155322	28.96956246184	0.09999974481
101	155887	29.069562207621	0.099999745781
101	156444	29.169561954061	0.09999974644
101	157001	29.269561700828	0.099999746767
101	157558	29.369561447582	0.099999746754
101	158115	29.469561193987	0.099999746405
101	158672	29.569560939696	0.099999745709
101	159229	29.669560684371	0.099999744675
101	159786	29.769560427692	0.099999743321
101	160343	29.869560169353	0.099999741661
101	160900	29.969559909076	0.099999739723
101	161465	30.069559646617	0.099999737541
101	162022	30.169559381771	0.099999735154
101	162579	30.269559114374	0.099999732603
101	163136	30.369558844298	0.099999729924
101	163693	30.469558571455	0.099999727157
101	164250	30.569558295797	0.099999724342
101	164807	30.669558017305	0.099999721508
101	165364	30.769557735997	0.099999718692
101	165921	30.869557451916	0.099999715919
101	166478	30.969557165138	0.099999713222
101	167043	31.06955687576	0.099999710622
101	167600	31.169556583909	0.099999708149
101	168157	31.269556289725	0.099999705816
101	168714	31.369555993371	0.099999703646
101	169271	31.469555695027	0.099999701656
101	169828	31.569555394883	0.099999699856
101	170385	31.66955509315	0.099999698267
101	170942	31.769554790041	0.099999696891
101	171499	31.869554485783	0.099999695742
101	172056	31.969567180605	0.100012694822
101	172621	32.069566874744	0.099999694139
101	173178	32.169566568433	0.099999693689
101	173735	32.269566261893	0.09999969346
101	174292	32.369565955335	0.099999693442
101	174849	32.469565648942	0.099999693607
101	175406	32.569565342878	0.099999693936
101	175963	32.669565037267	0.099999694389
101	176520	32.7695647322	0.099999694933
101	177077	32.869564427726	0.099999695526
101	177634	32.969564123858	0.099999696132
101	178199	33.069563820562	0.099999696704
101	178756	33.169563517773	0.099999697211
101	179313	33.269563215377	0.099999697604
101	179870	33.369562913226	0.099999697849
101	180427	33.469562611132	0.099999697906
101	180984	33.569562308873	0.099999697741
101	181541	33.669562006189	0.099999697316
101	182098	33.76956170279	0.099999696601
101	182655	33.869561398348	0.099999695558
101	183212	33.969561092511	0.099999694163
101	183777	34.069560784896	0.099999692385
101	184334	34.169560475095	0.099999690199
101	184891	34.269560162675	0.09999968758
101	185448	34.36955984718	0.099999684505
101	186005	34.469559528137	0.099999680957
101	186562	34.569559205055	0.099999676918
101	187119	34.669558877435	0.09999967238
101	187676	34.769558544771	0.099999667336
101	188233	34.869558206564	0.099999661793
101	188790	34.969557862324	0.09999965576
101	189355	35.069557511582	0.099999649258
101	189912	35.169557153887	0.099999642305
101	190469	35.269556788824	0.099999634937
101	191026	35.369556416004	0.09999962718
101	191583	35.469556035076	0.099999619072
101	192140	35.569555645722	0.099999610646
101	192697	35.669555247656	0.099999601934
101	193254	35.769554840636	0.09999959298
101	193811	35.869554424448	0.099999583812
101	194368	35.969566998921	0.100012574473
101	194933	36.069566563916	0.099999564995
101	195490	36.169566119331	0.099999555415
101	196047	36.269565665096	0.099999545765
101	196604	36.369565201178	0.099999536082
101	197161	36.469564727572	0.099999526394
101	197718	36.569564244309	0.099999516737
101	198275	36.669563751445	0.099999507136
101	198832	36.769563249067	0.099999497622
101	199389	36.869562737293	0.099999488226
101	199946	36.969562216259	0.099999478966
101	200511	37.069561686129	0.09999946987
102	1312	1.306030317109	0.099934724897
102	1868	1.406108042006	0.100077724897
102	2424	1.506094766903	0.099986724897
102	2980	1.6060684918	0.099973724897
102	3536	1.706081216697	0.100012724897
102	4092	1.806093941594	0.100012724897
102	4648	1.906080666491	0.099986724897
102	5212	2.006028391388	0.099947724897
102	5768	2.106093116285	0.100064724897
102	6324	2.206027841182	0.099934724897
102	6880	2.306105566079	0.100077724897
102	7436	2.406079290976	0.099973724897
102	7992	2.506040015873	0.099960724897
102	8548	2.60609174077	0.100051724897
102	9104	2.706013465667	0.099921724897
102	9660	2.806039190564	0.100025724897
102	10216	2.906103915461	0.100064724897
102	10780	3.006077640358	0.099973724897
102	11336	3.106012365255	0.099934724897
102	11892	3.206064090152	0.100051724897
102	12448	3.306050815049	0.099986724897
102	13004	3.406011539946	0.099960724897
102	13560	3.506102264843	0.100090724897
102	14116	3.60604998974	0.099947724897
102	14672	3.706088714637	0.100038724897
102	15228	3.806062439534	0.099973724897
102	15784	3.906036164431	0.099973724897
102	16348	4.006022889328	0.099986724897
102	16904	4.106035614225	0.100012724897
102	17460	4.206009339122	0.099973724897
102	18016	4.306100064019	0.100090724897
102	18572	4.406008788916	0.099908724897
102	19128	4.506073513813	0.100064724897
102	19684	4.60606023871	0.099986724897
102	20240	4.706072963607	0.100012724897
102	20796	4.806059688504	0.099986724897
102	21352	4.906098413401	0.100038724897
102	21917	5.006020138298	0.099921724897
102	22474	5.106084863195	0.100064724897
102	23031	5.206071588093	0.099986724898
102	23588	5.306058312993	0.0999867249
102	24145	5.406006037905	0.099947724912
102	24702	5.506070762849	0.100064724944
102	25253	5.60605748786	0.099986725011
102	25810	5.706005212991	0.099947725131
102	26367	5.806043938313	0.100038725322
102	26924	5.906043663916	0.099999725603
102	27489	6.006030389907	0.099986725991
102	28046	6.106017116413	0.099986726506
102	28603	6.206068843579	0.100051727166
102	29160	6.306081571558	0.100012727979
102	29717	6.406107300521	0.100025728963
102	30274	6.506042030653	0.099934730132
102	30831	6.606093762148	0.100051731495
102	31388	6.706067495208	0.09997373306
102	31945	6.806067230042	0.099999734834
102	32502	6.906079966855	0.100012736813
102	33067	7.006079705846	0.099999738991
102	33624	7.1060404472	0.099960741354
102	34181	7.206027191087	0.099986743887
102	34738	7.306013937648	0.099986746561
102	35295	7.406026686997	0.100012749349
102	35852	7.506039439211	0.100012752214
102	36409	7.606039194327	0.099999755116
102	36966	7.706103952341	0.100064758014
102	37523	7.806090713209	0.099986760868
102	38080	7.90609047685	0.099999763641
102	38645	8.006064243141	0.099973766291
102	39202	8.106012011928	0.099947768787
102	39759	8.206024783019	0.100012771091
102	40316	8.306050556203	0.100025773184
102	40873	8.406050331229	0.099999775026
102	41430	8.506024107831	0.099973776602
102	41987	8.60607588572	0.100051777889
102	42544	8.70607566459	0.09999977887
102	43101	8.80607544412	0.09999977953
102	43658	8.906088223978	0.100012779858
102	44223	9.006036003827	0.099947779849
102	44780	9.106061783326	0.100025779499
102	45343	9.206061562129	0.099999778803
102	45900	9.306009339892	0.099947777763
102	46457	9.406048116274	0.100038776382
102	47014	9.506021890938	0.099973774664
102	47571	9.606086663555	0.100064772617
102	48128	9.706047433809	0.099960770254
102	48685	9.806034201398	0.099986767589
102	49242	9.906020966047	0.099986764649
102	49807	10.006007727509	0.099986761462
102	50364	10.106072485579	0.10006475807
102	50921	10.206033240091	0.099960754512
102	51478	10.306071990929	0.100038750838
102	52035	10.406032738028	0.099960747099
102	52592	10.506097481375	0.100064743347
102	53149	10.606019221002	0.099921739627
102	53706	10.706096956992	0.10007773599
102	54263	10.806005689472	0.09990873248
102	54820	10.906083418605	0.100077729133
102	55385	11.0060701446	0.099986725995
102	55942	11.106069867698	0.099999723098
102	56499	11.206030588172	0.099960720474
102	57056	11.306043306319	0.100012718147
102	57613	11.406082022462	0.100038716143
102	58170	11.506029736945	0.099947714483
102	58727	11.606029450125	0.09999971318
102	59284	11.706081162368	0.100051712243
102	59841	11.806015874056	0.099934711688
102	60398	11.906054585567	0.100038711511
102	60963	12.006093297288	0.100038711721
102	61514	12.106080009597	0.099986712309
102	62071	12.206105722863	0.100025713266
102	62628	12.306092437432	0.099986714569
102	63185	12.40604015363	0.099947716198
102	63742	12.506026871743	0.099986718113
102	64299	12.606065592016	0.100038720273
102	64856	12.70605231465	0.099986722634
102	65413	12.806104039799	0.100051725149
102	65970	12.906038767563	0.099934727764
102	66535	13.00606449799	0.100025730427
102	67092	13.106064231086	0.099999733096
102	67649	13.206037966804	0.099973735718
102	68206	13.306089705059	0.100051738255
102	68763	13.406024445718	0.099934740659
102	69320	13.506011188616	0.099986742898
102	69877	13.60602393355	0.100012744934
102	70434	13.706062680289	0.100038746739
102	70991	13.80602342857	0.099960748281
102	71548	13.906062178114	0.100038749544
102	72113	14.006035928617	0.099973750503
102	72670	14.106074679764	0.100038751147
102	73227	14.20608743122	0.100012751456
102	73784	14.306035182651	0.099947751431
102	74341	14.406021933714	0.099986751063
102	74904	14.506034684059	0.100012750345
102	75461	14.606034433344	0.099999749285
102	76018	14.706060181232	0.100025747888
102	76575	14.806007927403	0.099947746171
102	77132	14.906085671562	0.100077744159
102	77697	15.006059413443	0.099973741881
102	78254	15.106033152818	0.099973739375
102	78811	15.206019889504	0.099986736686
102	79368	15.306097623365	0.100077733861
102	79925	15.406084354313	0.099986730948
102	80482	15.506084082311	0.099999727998
102	81039	15.606057807369	0.099973725058
102	81596	15.706018529539	0.09996072217
102	82153	15.806005248923	0.099986719384
102	82710	15.906017965659	0.100012716736
102	83275	16.006043679921	0.100025714262
102	83832	16.106017391926	0.099973712005
102	84389	16.206017101913	0.099999709987
102	84946	16.306055810149	0.100038708236
102	85503	16.406016516926	0.099960706777
102	86060	16.506016222554	0.099999705628
102	86617	16.606028927361	0.100012704807
102	87174	16.706015631683	0.099986704322
102	87731	16.806067335869	0.100051704186
102	88288	16.906015040266	0.099947704397
102	88847	17.006027745233	0.100012704967
102	89404	17.10604045112	0.100012705887
102	89961	17.206105158268	0.100064707148
102	90518	17.306104867007	0.099999708739
102	91075	17.406078577632	0.099973710625
102	91632	17.506052290412	0.09997371278
102	92189	17.60605200558	0.099999715168
102	92746	17.706012723321	0.099960717741
102	93303	17.806038443775	0.100025720454
102	93860	17.906064167026	0.100025723251
102	94425	18.006037893116	0.09997372609
102	94982	18.106024622037	0.099986728921
102	95539	18.206102353735	0.100077731698
102	96096	18.30603708811	0.099934734375
102	96653	18.406023825027	0.099986736917
102	97210	18.506049564309	0.100025739282
102	97767	18.606049305746	0.099999741437
102	98324	18.7060230491	0.099973743354
102	98881	18.806087794101	0.100064745001
102	99438	18.906022540462	0.099934746361
102	100003	19.006061287875	0.100038747413
102	100560	19.106087036016	0.100025748141
102	101117	19.206073784547	0.099986748531
102	101674	19.306060533125	0.099986748578
102	102231	19.406086281402	0.100025748277
102	102794	19.506008029025	0.099921747623
102	103351	19.606007775647	0.099999746622
102	103908	19.706007520925	0.099999745278
102	104465	19.806085264537	0.100077743612
102	105022	19.906020006183	0.099934741646
102	105587	20.006045745599	0.100025739416
102	106144	20.106032482553	0.099986736954
102	106701	20.206058216863	0.10002573431
102	107258	20.30607094839	0.100012731527
102	107815	20.406057677047	0.099986728657
102	108372	20.506070402797	0.10001272575
102	108929	20.606096125647	0.10002572285
102	109486	20.706056845655	0.099960720008
102	110043	20.806082562918	0.100025717263
102	110600	20.906069277575	0.099986714657
102	111165	21.006029989805	0.09996071223
102	111722	21.106094699816	0.100064710011
102	112279	21.206107407851	0.100012708035
102	112836	21.306107114178	0.099999706327
102	113393	21.40604181909	0.099934704912
102	113950	21.506080522892	0.100038703802
102	114507	21.606028225916	0.099947703024
102	115064	21.706066928494	0.100038702578
102	115621	21.806092630973	0.100025702479
102	116178	21.906040333706	0.099947702733
102	116737	22.006014037047	0.099973703341
102	117294	22.106091741345	0.100077704298
102	117851	22.206091446942	0.099999705597
102	118408	22.306065154164	0.099973707222
102	118965	22.40610386331	0.100038709146
102	119522	22.506012574649	0.099908711339
102	120079	22.606064288411	0.100051713762
102	120636	22.706090004783	0.100025716372
102	121193	22.806102723901	0.100012719118
102	121750	22.906024445856	0.099921721955
102	122315	23.006050170684	0.100025724828
102	122872	23.106023898379	0.099973727695
102	123429	23.206075628887	0.100051730508
102	123986	23.306088362111	0.100012733224
102	124543	23.40607509791	0.099986735799
102	125100	23.506074836109	0.099999738199
102	125657	23.606061576498	0.099986740389
102	126214	23.706035318836	0.099973742338
102	126771	23.806035062858	0.099999744022
102	127328	23.906086808272	0.100051745414
102	127893	24.00604755477	0.099960746498
102	128450	24.106047302026	0.099999747256
102	129007	24.206060049704	0.100012747678
102	129564	24.30603379746	0.099973747756
102	130121	24.406085544943	0.100051747483
102	130684	24.506085291803	0.09999974686
102	131241	24.606085037687	0.099999745884
102	131798	24.706045782255	0.099960744568
102	132355	24.806058525182	0.100012742927
102	132912	24.906084266171	0.100025740989
102	133477	25.00607100495	0.099986738779
102	134034	25.106005741293	0.099934736343
102	134591	25.206031475013	0.10002573372
102	135148	25.306070205975	0.100038730962
102	135705	25.406056934088	0.099986728113
102	136262	25.506017659317	0.099960725229
102	136819	25.606095381667	0.10007772235
102	137376	25.706056101193	0.099960719526
102	137933	25.806042817995	0.099986716802
102	138490	25.90610753221	0.100064714215
102	139055	26.006094244014	0.099986711804
102	139612	26.106080953618	0.099986709604
102	140169	26.206015661264	0.099934707646
102	140726	26.306028367221	0.100012705957
102	141283	26.406080071775	0.100051704554
102	141840	26.50609277524	0.100012703465
102	142397	26.606027477939	0.099934702699
102	142954	26.706105180207	0.100077702268
102	143511	26.806026882391	0.099921702184
102	144068	26.906078584843	0.100051702452
102	144627	27.006026287913	0.09994770307
102	145184	27.106103991953	0.10007770404
102	145741	27.206025697304	0.099921705351
102	146298	27.30606440429	0.100038706986
102	146855	27.406025113209	0.099960708919
102	147412	27.506076824332	0.100051711123
102	147969	27.606063537888	0.099986713556
102	148526	27.706102254063	0.100038716175
102	149083	27.806010972993	0.09990871893
102	149640	27.906062694767	0.100051721774
102	150205	28.006101419422	0.100038724655
102	150762	28.106101146953	0.099999727531
102	151319	28.206009877303	0.09990873035
102	151876	28.306074610376	0.100064733073
102	152433	28.406074346032	0.099999735656
102	152990	28.506100084094	0.100025738062
102	153547	28.606073824352	0.099973740258
102	154104	28.706008566567	0.099934742215
102	154661	28.806034310468	0.100025743901
102	155218	28.906086055769	0.100051745301
102	155783	29.006059802158	0.099973746389
102	156340	29.106059549311	0.099999747153
102	156897	29.206046296893	0.099986747582
102	157454	29.306007044554	0.099960747661
102	158011	29.406058791948	0.100051747394
102	158574	29.506045538721	0.099986746773
102	159131	29.606019284522	0.099973745801
102	159688	29.70601902901	0.099999744488
102	160245	29.806005771862	0.099986742852
102	160802	29.906031512778	0.100025740916
102	161367	30.006096251489	0.100064738711
102	161924	30.106004987766	0.099908736277
102	162481	30.206069721421	0.100064733655
102	163038	30.306108452307	0.100038730886
102	163595	30.40606918032	0.099960728013
102	164152	30.506042905397	0.099973725077
102	164709	30.606029627511	0.099986722114
102	165266	30.706055346674	0.100025719163
102	165823	30.806016062924	0.09996071625
102	166380	30.906080776336	0.100064713412
102	166945	31.006067487008	0.099986710672
102	167502	31.106028195067	0.099960708059
102	168059	31.206079900661	0.100051705594
102	168610	31.306066603955	0.099986703294
102	169167	31.406027305136	0.099960701181
102	169724	31.506092004403	0.100064699267
102	170281	31.60602670197	0.099934697567
102	170838	31.706052398061	0.100025696091
102	171395	31.806065092909	0.100012694848
102	171952	31.906012786753	0.099947693844
102	172517	32.006038479838	0.100025693085
102	173074	32.106051172412	0.100012692574
102	173631	32.206076864711	0.100025692299
102	174188	32.306050556968	0.099973692257
102	174745	32.406050249387	0.099999692419
102	175302	32.506023942157	0.09997369277
102	175859	32.606062635427	0.10003869327
102	176416	32.70610132931	0.100038693883
102	176973	32.806010023879	0.099908694569
102	177530	32.90606171916	0.100051695281
102	178095	33.006022415137	0.099960695977
102	178652	33.106061111751	0.100038696614
102	179209	33.206021808896	0.099960697145
102	179766	33.306021506429	0.099999697533
102	180323	33.406060204162	0.100038697733
102	180880	33.506072901872	0.10001269771
102	181437	33.606033599299	0.099960697427
102	181994	33.706046296146	0.100012696847
102	182551	33.806058992082	0.100012695936
102	183108	33.906084686747	0.100025694665
102	183673	34.006045379754	0.099960693007
102	184230	34.106006070683	0.099960690929
102	184787	34.206057759096	0.100051688413
102	185344	34.30605744453	0.099999685434
102	185901	34.406018126502	0.099960681972
102	186458	34.50604380451	0.100025678008
102	187015	34.606108478044	0.100064673534
102	187572	34.706108146579	0.099999668535
102	188129	34.806081809596	0.099973663017
102	188686	34.906016466584	0.099934656988
102	189251	35.006042117048	0.100025650464
102	189808	35.106028760512	0.099986643464
102	190365	35.206093396539	0.100064636027
102	190922	35.306080024718	0.099986628179
102	191479	35.406040644679	0.099960619961
102	192036	35.506053256092	0.100012611413
102	192593	35.606039858663	0.099986602571
102	193150	35.706091452139	0.100051593476
102	193707	35.806091036306	0.099999584167
102	194264	35.906038610989	0.099947574683
102	194829	36.006038176052	0.099999565063
102	195386	36.106089731392	0.10005155534
102	195943	36.206089276945	0.099999545553
102	196500	36.306049812683	0.099960535738
102	197057	36.406036338609	0.099986525926
102	197614	36.506035854757	0.099999516148
102	198171	36.606087361193	0.100051506436
102	198728	36.706034858013	0.09994749682
102	199285	36.80602134534	0.099986487327
102	199842	36.906098823321	0.100077477981
102	200407	37.006072292127	0.099973468806
