file 1680630 1512143491                                         
version 2
run SinusoidalAccInjectionAttack-110-20171201-16:51:00-83953
attr CACCSpacing 20
attr attackAcc -10
attr attackPos 7
attr attackSpeed 150
attr attackStart 30
attr attacker 4
attr beaconInterval 0.1
attr configname SinusoidalAccInjectionAttack
attr controller 2
attr datetime 20171201-16:51:00
attr experiment SinusoidalAccInjectionAttack
attr fakeAcc "(4 == 4)"
attr fakePos "(4 == 2)"
attr fakeSpeed "(4 == 3)"
attr inifile omnetpp_110.ini
attr iterationvars "$attacker=4, $attackSpeed=150, $attackPos=7, $attackAcc=-10, $leaderSpeed=150, $controller=2, $CACCSpacing=20, $sController=\"PLOEG\", $attackStart=30, $0=2, $1=0.5, $nCars=8, $platoonSize=8, $nLanes=1, $beaconInterval=0.1, $priority=2, $packetSize=200, $ploegH=0.5, $leaderHeadway=1.2, $fakeSpeed=(4 == 3), $fakeAcc=(4 == 4), $fakePos=(4 == 2)"
attr iterationvarsf attacker=4,attackSpeed=150,attackPos=7,attackAcc=-10,leaderSpeed=150,controller=2,CACCSpacing=20,sController=PLOEG,attackStart=30,2,0.5,nCars=8,platoonSize=8,nLanes=1,beaconInterval=0.1,priority=2,packetSize=200,ploegH=0.5,leaderHeadway=1.2,fakeSpeed=(4_==_3),fakeAcc=(4_==_4),fakePos=(4_==_2)-
attr leaderHeadway 1.2
attr leaderSpeed 150
attr measurement "$attacker=4, $attackSpeed=150, $attackPos=7, $attackAcc=-10, $leaderSpeed=150, $controller=2, $CACCSpacing=20, $sController=\"PLOEG\", $attackStart=30, $0=2, $1=0.5, $nCars=8, $platoonSize=8, $nLanes=1, $beaconInterval=0.1, $priority=2, $packetSize=200, $ploegH=0.5, $leaderHeadway=1.2, $fakeSpeed=(4 == 3), $fakeAcc=(4 == 4), $fakePos=(4 == 2)"
attr nCars 8
attr nLanes 1
attr network scenario
attr packetSize 200
attr platoonSize 8
attr ploegH 0.5
attr priority 2
attr processid 83953
attr repetition 0
attr replication #0
attr resultdir results
attr runnumber 110
attr sController "\"PLOEG\""
attr seedset 0
param **.coreDebug false
param **.debug false
param **.headway 0.1s
param **.numberOfCars 8
param **.numberOfCarsPerPlatoon 8
param **.numberOfLanes 1
param **.numericController 2
param **.traffic.nCars 8
param **.traffic.nLanes 1
param **.traffic.platoonInsertDistance 2m
param **.traffic.platoonInsertHeadway 0.5s
param **.traffic.platoonInsertSpeed 150kmph
param **.traffic.platoonInsertTime "1 s"
param **.traffic.platoonLeaderHeadway 1.2s
param **.traffic.platoonSize 8
param **.traffic.platooningVType "\"vtypeauto\""
param **.traffic_type "\"PlatoonsTrafficManager\""
param *.**.nic.mac1609_4.bitrate 6Mbps
param *.**.nic.mac1609_4.txPower 100mW
param *.**.nic.mac1609_4.useServiceChannel false
param *.**.nic.phy80211p.analogueModels "xmldoc(\"config.xml\")"
param *.**.nic.phy80211p.decider "xmldoc(\"config.xml\")"
param *.**.nic.phy80211p.maxTXPower 100mW
param *.**.nic.phy80211p.sensitivity -94dBm
param *.**.nic.phy80211p.thermalNoise -95dBm
param *.**.nic.phy80211p.usePropagationDelay true
param *.**.nic.phy80211p.useThermalNoise true
param *.annotations.draw false
param *.connectionManager.alpha 2.0
param *.connectionManager.carrierFrequency "5.890e9 Hz"
param *.connectionManager.pMax 100mW
param *.connectionManager.sat -94dBm
param *.connectionManager.sendDirect true
param *.manager.autoShutdown true
param *.manager.commandLine "\"sumo --remote-port $port --seed $seed --configuration-file $configFile\""
param *.manager.configFile "\"./sumocfg/freeway.sumo.cfg\""
param *.manager.host "\"localhost\""
param *.manager.margin 25
param *.manager.moduleDisplayString "\"\""
param *.manager.moduleName "\"node\""
param *.manager.moduleType "\"Car\""
param *.manager.updateInterval 0.01s
param *.node[*].appl.attackStart 30s
param *.node[*].appl.attackerType 4
param *.node[*].appl.simulationDuration "60 s"
param *.node[*].appl_type "\"SimplePlatooningApp\""
param *.node[*].helper.nCars 8
param *.node[*].helper.nLanes 1
param *.node[*].helper.platoonSize 8
param *.node[*].helper_type "\"PositionHelper\""
param *.node[*].mobility.x 0
param *.node[*].mobility.y 0
param *.node[*].mobility.z 1.895
param *.node[*].prot.attackStart 30s
param *.node[*].prot.attackerType 4
param *.node[*].prot.attackingNode 3
param *.node[*].prot.beaconingInterval 0.1s
param *.node[*].prot.fakeAcc "(4 == 4)"
param *.node[*].prot.fakePos "(4 == 2)"
param *.node[*].prot.fakeSpeed "(4 == 3)"
param *.node[*].prot.maliciousAcc "-10 mpss"
param *.node[*].prot.maliciousSpeed 150kmph
param *.node[*].prot.packetSize 200
param *.node[*].prot.priority 2
param *.node[*].prot.shiftX "7 m"
param *.node[*].prot.useControllerAcceleration true
param *.node[*].protocol_type "\"SimplePlatooningBeaconing\""
param *.node[*].scenario.accHeadway 0.1s
param *.node[*].scenario.caccC1 0.5
param *.node[*].scenario.caccOmegaN "0.2 Hz"
param *.node[*].scenario.caccSpacing 20m
param *.node[*].scenario.caccXi 1
param *.node[*].scenario.controller "\"PLOEG\""
param *.node[*].scenario.engineTau "0.5 s"
param *.node[*].scenario.leaderHeadway 1.2s
param *.node[*].scenario.leaderSpeed 150kmph
param *.node[*].scenario.ploegH 0.5s
param *.node[*].scenario.ploegKd 0.7
param *.node[*].scenario.ploegKp 0.2
param *.node[*].scenario.useRealisticEngine false
param *.node[*].scenario_type "\"SinusoidalScenario\""
param *.node[*].unicast.packetLossRate 0
param *.obstacles.debug false
param *.playgroundSizeX 65000m
param *.playgroundSizeY 25000m
param *.playgroundSizeZ 50m
param *.world.use2D false
param *.world.useTorus false

vector 0  scenario.node[0].appl  distance  ETV
vector 1  scenario.node[0].appl  relativeSpeed  ETV
vector 2  scenario.node[0].appl  nodeId  ETV
vector 6  scenario.node[0].appl  acceleration  ETV
vector 7  scenario.node[0].appl  controllerAcceleration  ETV
vector 3  scenario.node[0].appl  speed  ETV
vector 4  scenario.node[0].appl  posx  ETV
vector 5  scenario.node[0].appl  posy  ETV
vector 22  scenario.node[1].appl  distance  ETV
vector 23  scenario.node[1].appl  relativeSpeed  ETV
vector 24  scenario.node[1].appl  nodeId  ETV
vector 28  scenario.node[1].appl  acceleration  ETV
vector 29  scenario.node[1].appl  controllerAcceleration  ETV
vector 25  scenario.node[1].appl  speed  ETV
vector 26  scenario.node[1].appl  posx  ETV
vector 27  scenario.node[1].appl  posy  ETV
vector 44  scenario.node[2].appl  distance  ETV
vector 45  scenario.node[2].appl  relativeSpeed  ETV
vector 46  scenario.node[2].appl  nodeId  ETV
vector 50  scenario.node[2].appl  acceleration  ETV
vector 51  scenario.node[2].appl  controllerAcceleration  ETV
vector 47  scenario.node[2].appl  speed  ETV
vector 48  scenario.node[2].appl  posx  ETV
vector 49  scenario.node[2].appl  posy  ETV
vector 66  scenario.node[3].appl  distance  ETV
vector 67  scenario.node[3].appl  relativeSpeed  ETV
vector 68  scenario.node[3].appl  nodeId  ETV
vector 72  scenario.node[3].appl  acceleration  ETV
vector 73  scenario.node[3].appl  controllerAcceleration  ETV
vector 69  scenario.node[3].appl  speed  ETV
vector 70  scenario.node[3].appl  posx  ETV
vector 71  scenario.node[3].appl  posy  ETV
vector 88  scenario.node[4].appl  distance  ETV
vector 89  scenario.node[4].appl  relativeSpeed  ETV
vector 90  scenario.node[4].appl  nodeId  ETV
vector 94  scenario.node[4].appl  acceleration  ETV
vector 95  scenario.node[4].appl  controllerAcceleration  ETV
vector 91  scenario.node[4].appl  speed  ETV
vector 92  scenario.node[4].appl  posx  ETV
vector 93  scenario.node[4].appl  posy  ETV
vector 110  scenario.node[5].appl  distance  ETV
vector 111  scenario.node[5].appl  relativeSpeed  ETV
vector 112  scenario.node[5].appl  nodeId  ETV
vector 116  scenario.node[5].appl  acceleration  ETV
vector 117  scenario.node[5].appl  controllerAcceleration  ETV
vector 113  scenario.node[5].appl  speed  ETV
vector 114  scenario.node[5].appl  posx  ETV
vector 115  scenario.node[5].appl  posy  ETV
vector 132  scenario.node[6].appl  distance  ETV
vector 133  scenario.node[6].appl  relativeSpeed  ETV
vector 134  scenario.node[6].appl  nodeId  ETV
vector 138  scenario.node[6].appl  acceleration  ETV
vector 139  scenario.node[6].appl  controllerAcceleration  ETV
vector 135  scenario.node[6].appl  speed  ETV
vector 136  scenario.node[6].appl  posx  ETV
vector 137  scenario.node[6].appl  posy  ETV
vector 154  scenario.node[7].appl  distance  ETV
vector 155  scenario.node[7].appl  relativeSpeed  ETV
vector 156  scenario.node[7].appl  nodeId  ETV
vector 160  scenario.node[7].appl  acceleration  ETV
vector 161  scenario.node[7].appl  controllerAcceleration  ETV
vector 157  scenario.node[7].appl  speed  ETV
vector 158  scenario.node[7].appl  posx  ETV
vector 159  scenario.node[7].appl  posy  ETV
vector 80  scenario.node[3].prot  frontDelay  ETV
vector 78  scenario.node[3].prot  frontDelayId  ETV
vector 58  scenario.node[2].prot  frontDelay  ETV
vector 56  scenario.node[2].prot  frontDelayId  ETV
vector 168  scenario.node[7].prot  frontDelay  ETV
vector 166  scenario.node[7].prot  frontDelayId  ETV
vector 35  scenario.node[1].prot  leaderDelay  ETV
vector 33  scenario.node[1].prot  leaderDelayId  ETV
vector 36  scenario.node[1].prot  frontDelay  ETV
vector 34  scenario.node[1].prot  frontDelayId  ETV
vector 57  scenario.node[2].prot  leaderDelay  ETV
vector 55  scenario.node[2].prot  leaderDelayId  ETV
vector 79  scenario.node[3].prot  leaderDelay  ETV
vector 77  scenario.node[3].prot  leaderDelayId  ETV
vector 101  scenario.node[4].prot  leaderDelay  ETV
vector 99  scenario.node[4].prot  leaderDelayId  ETV
vector 123  scenario.node[5].prot  leaderDelay  ETV
vector 121  scenario.node[5].prot  leaderDelayId  ETV
vector 145  scenario.node[6].prot  leaderDelay  ETV
vector 143  scenario.node[6].prot  leaderDelayId  ETV
vector 167  scenario.node[7].prot  leaderDelay  ETV
vector 165  scenario.node[7].prot  leaderDelayId  ETV
vector 124  scenario.node[5].prot  frontDelay  ETV
vector 122  scenario.node[5].prot  frontDelayId  ETV
vector 102  scenario.node[4].prot  frontDelay  ETV
vector 100  scenario.node[4].prot  frontDelayId  ETV
vector 146  scenario.node[6].prot  frontDelay  ETV
vector 144  scenario.node[6].prot  frontDelayId  ETV
vector 8  scenario.node[0].prot  nodeId  ETV
vector 9  scenario.node[0].prot  busyTime  ETV
vector 10  scenario.node[0].prot  collisions  ETV
vector 30  scenario.node[1].prot  nodeId  ETV
vector 31  scenario.node[1].prot  busyTime  ETV
vector 32  scenario.node[1].prot  collisions  ETV
vector 52  scenario.node[2].prot  nodeId  ETV
vector 53  scenario.node[2].prot  busyTime  ETV
vector 54  scenario.node[2].prot  collisions  ETV
vector 74  scenario.node[3].prot  nodeId  ETV
vector 75  scenario.node[3].prot  busyTime  ETV
vector 76  scenario.node[3].prot  collisions  ETV
vector 96  scenario.node[4].prot  nodeId  ETV
vector 97  scenario.node[4].prot  busyTime  ETV
vector 98  scenario.node[4].prot  collisions  ETV
vector 118  scenario.node[5].prot  nodeId  ETV
vector 119  scenario.node[5].prot  busyTime  ETV
vector 120  scenario.node[5].prot  collisions  ETV
vector 140  scenario.node[6].prot  nodeId  ETV
vector 141  scenario.node[6].prot  busyTime  ETV
vector 142  scenario.node[6].prot  collisions  ETV
vector 162  scenario.node[7].prot  nodeId  ETV
vector 163  scenario.node[7].prot  busyTime  ETV
vector 164  scenario.node[7].prot  collisions  ETV
7	11100 13862 232 328174 1.11 59.91 589 -1.5 1.5 -14.445978168666 993.24092374633
6	24962 18591 232 328174 1.11 59.91 589 -1.4722746794739 1.4513434175775 -12.507273387293 675.29835233824
5	43553 12081 232 328174 1.11 59.91 589 36.55 36.55 21527.95 786846.5725
4	55634 17917 232 328174 1.11 59.91 589 225.4398601528 2679.7559927397 856399.94787593 1541422775.2632
3	73551 17882 232 328174 1.11 59.91 589 40.376854748618 43.631381416411 24584.394369227 1026576.1694128
1	91433 9725 232 328174 1.11 59.91 589 0 0 0 0
0	101158 10314 232 328174 1.11 59.91 589 -1 -1 -589 589
2	111472 9725 232 328174 1.11 59.91 589 0 0 0 0
10	121197 858 5102 328596 2 60 59 0 0 0 0
9	122055 1154 5102 328596 2 60 59 0.022969 0.02625 1.545469 0.040493199961
8	123209 799 5102 328596 2 60 59 0 0 0 0
29	124008 18893 233 328175 1.11 59.91 589 -1.5293265131132 1.5 -12.700719065589 733.68024306331
28	142901 19236 233 328175 1.11 59.91 589 -1.437069992086 1.3623363790266 -6.6702912201386 516.20269035408
27	162137 12670 233 328175 1.11 59.91 589 36.55 36.55 21527.95 786846.5725
26	174807 18490 233 328175 1.11 59.91 589 198.60653190613 2653.309758714 840566.84511777 1495832588.5624
25	193297 18501 233 328175 1.11 59.91 589 40.56394545809 43.463895757694 24588.474613371 1026820.0116733
23	211798 19541 233 328175 1.11 59.91 589 -0.72639939608227 0.70590387662046 -3.9551714104059 142.56575555335
22	231339 18484 233 328175 1.11 59.91 589 22.251736544141 23.757070682632 13477.184363038 308475.70967482
24	249823 10314 233 328175 1.11 59.91 589 1 1 589 589
36	260137 23697 1032 328418 1.25491366976 59.954919670652 588 0.099909506178 0.100092621866 58.80001950707 5.8800049284693
35	283834 23697 1032 328418 1.25491366976 59.954919670652 588 0.099909506178 0.100092621866 58.80001950707 5.8800049284693
34	307531 16113 1032 328418 1.25491366976 59.954919670652 588 1 1 588 588
33	323644 16113 1032 328418 1.25491366976 59.954919670652 588 1 1 588 588
32	339757 858 5103 328597 2 60 59 0 0 0 0
31	340615 1213 5103 328597 2 60 59 0.022969 0.02625 1.545469 0.040493199961
30	341828 858 5103 328597 2 60 59 1 1 59 59
51	342686 19247 234 328176 1.11 59.91 589 -1.4940420786055 1.4188747915768 -6.2776735096611 560.43223007
50	361933 19338 234 328176 1.11 59.91 589 -1.3487059686256 1.2272236307645 -0.15551335346018 394.5111269189
49	381271 12670 234 328176 1.11 59.91 589 36.55 36.55 21527.95 786846.5725
48	393941 18507 234 328176 1.11 59.91 589 171.77320365906 2626.5265534193 824738.03861883 1451105276.1007
47	412448 18489 234 328176 1.11 59.91 589 40.707597243839 43.336758213624 24589.203896031 1026808.892252
45	430937 19515 234 328176 1.11 59.91 589 -0.68495961134779 0.63768360996394 -0.66257974747685 107.84472212812
44	450452 18495 234 328176 1.11 59.91 589 22.321385829647 23.684305545642 13472.821084596 308254.77419345
46	468947 10314 234 328176 1.11 59.91 589 2 2 1178 2356
58	479261 23684 900 328286 1.22965968519 59.929652349566 588 0.099987490744 0.10000187619 58.799993170554 5.8799986409552
57	502945 23706 1038 328424 1.254913759267 59.954919759904 588 0.099909506178 0.100092622066 58.800019506815 5.8800049284183
56	526651 16106 900 328286 1.22965968519 59.929652349566 588 2 2 1176 2352
55	542757 16123 1038 328424 1.254913759267 59.954919759904 588 2 2 1176 2352
54	558880 858 5104 328598 2 60 59 0 0 0 0
53	559738 1213 5104 328598 2 60 59 0.022969 0.02625 1.545469 0.040493199961
52	560951 858 5104 328598 2 60 59 2 2 118 236
73	561809 19321 235 328177 1.11 59.91 589 -1.4034209978488 1.281699368204 0.53273629920581 430.2651557667
72	581130 19427 235 328177 1.11 59.91 589 -1.2415341070223 1.0830125455257 4.815605638678 304.08629152269
71	600557 12670 235 328177 1.11 59.91 589 36.55 36.55 21527.95 786846.5725
70	613227 18499 235 328177 1.11 59.91 589 144.9398601532 2599.4692944372 808910.02927558 1407231895.4002
69	631726 18503 235 328177 1.11 59.91 589 40.822431490021 43.236413939449 24587.135922092 1026581.5923922
67	650229 19562 235 328177 1.11 59.91 589 -0.63288709641942 0.56590458778729 2.0695290720832 83.00161801568
66	669791 18489 235 328177 1.11 59.91 589 22.382850434093 23.630468028866 13471.967983774 308200.30787262
68	688280 10314 235 328177 1.11 59.91 589 3 3 1767 5301
80	698594 23686 832 328218 1.213906595684 59.913899261163 588 0.099987485537 0.10000187611 58.799993171657 5.8799986411827
79	722280 23711 1044 328430 1.254913848773 59.954919850091 588 0.099909506178 0.100092622181 58.800019507496 5.8800049285545
78	745991 16105 832 328218 1.213906595684 59.913899261163 588 3 3 1764 5292
77	762096 16127 1044 328430 1.254913848773 59.954919850091 588 3 3 1764 5292
76	778223 858 5105 328599 2 60 59 0 0 0 0
75	779081 1213 5105 328599 2 60 59 0.022968 0.02625 1.545468 0.040493154024
74	780294 858 5105 328599 2 60 59 3 3 177 531
95	781152 18166 236 328178 1.11 59.91 589 -7.2018156949055 1.5 3.6431250468373 1162.2247036034
94	799318 19355 236 328178 1.11 59.91 589 -6.135631239971 1.4999999839631 0.54860344178316 965.55911155789
93	818673 12670 236 328178 1.11 59.91 589 36.55 36.55 21527.95 786846.5725
92	831343 18507 236 328178 1.11 59.91 589 118.10653190613 2521.7185992585 778643.40077332 1307009098.2218
91	849850 18507 236 328178 1.11 59.91 589 30.128560446303 45.869574278752 24077.802045014 990431.46558941
89	868357 19293 236 328178 1.11 59.91 589 -4.4360089561634 12.084595677886 509.28572102232 6590.2000257302
88	887650 18505 236 328178 1.11 59.91 589 22.435835880959 92.414264272652 27900.441824716 1758340.2189282
90	906155 10314 236 328178 1.11 59.91 589 4 4 2356 9424
102	916469 24288 1246 328647 1.30355165433 60.003558162683 588 0.099987488015 0.100001875963 58.799994014531 5.8799988097632
101	940757 24296 1050 328436 1.254913938279 59.954920109498 588 0.099909506178 0.100092621118 58.800019677397 5.8800049625348
100	965053 16703 1246 328647 1.30355165433 60.003558162683 588 4 4 2352 9408
99	981756 16125 1050 328436 1.254913938279 59.954920109498 588 4 4 2352 9408
98	997881 858 5106 328600 2 60 59 0 0 0 0
97	998739 1213 5106 328600 2 60 59 0.022969 0.02625 1.545469 0.040493199961
96	999952 858 5106 328600 2 60 59 4 4 236 944
117	1000810 19949 237 328179 1.11 59.91 589 -6.3192379357567 1.5781237393222 0.25969073579685 1017.2565272643
116	1020759 19966 237 328179 1.11 59.91 589 -5.5769286256123 1.5428033398187 -2.0101491174074 868.44153330877
115	1040725 13259 237 328179 1.11 59.91 589 36.55 36.55 21527.95 786846.5725
114	1053984 19081 237 328179 1.11 59.91 589 91.273196029663 2494.9761632479 763069.82552991 1266302510.1333
113	1073065 19092 237 328179 1.11 59.91 589 30.307070696263 45.793490431816 24078.622614537 990371.67149442
111	1092157 20155 237 328179 1.11 59.91 589 -2.814432005974 0.75492926021608 -0.82605555755028 213.04903256549
110	1112312 19070 237 328179 1.11 59.91 589 17.165990165694 24.824815537276 13217.591654803 298071.68613523
112	1131382 10903 237 328179 1.11 59.91 589 5 5 2945 14725
124	1142285 24285 1172 328552 1.265750564824 59.96575673304 588 0.099987501849 0.100001877639 58.800006674394 5.880001341589
123	1166570 24269 1056 328442 1.254914027786 59.954920198735 588 0.099909506178 0.100092620894 58.800019677127 5.8800049624808
122	1190839 16712 1172 328552 1.265750564824 59.96575673304 588 5 5 2940 14700
121	1207551 16699 1056 328442 1.254914027786 59.954920198735 588 5 5 2940 14700
120	1224250 917 5107 328601 2 60 59 0 0 0 0
119	1225167 1272 5107 328601 2 60 59 0.022968 0.02625 1.545468 0.040493154024
118	1226439 917 5107 328601 2 60 59 5 5 295 1475
139	1227356 19937 238 328180 1.11 59.91 589 -5.7432926122235 1.6319135701659 -2.336660449055 913.57588027629
138	1247293 19986 238 328180 1.11 59.91 589 -5.15104715493 1.5862256998695 -3.2864900938488 793.02451392853
137	1267279 13259 238 328180 1.11 59.91 589 36.55 36.55 21527.95 786846.5725
136	1280538 19099 238 328180 1.11 59.91 589 64.439863967896 2468.3103615393 747495.89304808 1226426263.1707
135	1299637 19090 238 328180 1.11 59.91 589 30.443573834894 45.717917336615 24080.255230226 990391.02328966
133	1318727 20136 238 328180 1.11 59.91 589 -2.5910209902115 0.77219270494064 -1.612514197678 193.48052904537
132	1338863 19083 238 328180 1.11 59.91 589 17.239615793969 24.788970654369 13217.965134139 298063.44894936
134	1357946 10903 238 328180 1.11 59.91 589 6 6 3534 21204
146	1368849 24301 1312 328701 1.305160833343 60.005167340951 588 0.099987495223 0.100001876456 58.800007013786 5.8800014094714
145	1393150 24274 1062 328448 1.254914117292 59.9549202877 588 0.099909506178 0.10009262073 58.800019676586 5.8800049623726
144	1417424 16719 1312 328701 1.305160833343 60.005167340951 588 6 6 3528 21168
143	1434143 16699 1062 328448 1.254914117292 59.9549202877 588 6 6 3528 21168
142	1450842 917 5108 328602 2 60 59 0 0 0 0
141	1451759 1272 5108 328602 2 60 59 0.022969 0.02625 1.545469 0.040493199961
140	1453031 917 5108 328602 2 60 59 6 6 354 2124
161	1453948 19996 239 328181 1.11 59.91 589 -5.2985699936076 1.6718803406336 -3.5021493211318 830.84343101261
160	1473944 20003 239 328181 1.11 59.91 589 -4.8087302187177 1.621035993076 -3.1198379460896 732.52960044932
159	1493947 13259 239 328181 1.11 59.91 589 36.55 36.55 21527.95 786846.5725
158	1507206 19089 239 328181 1.11 59.91 589 37.606529998779 2441.6442046001 731921.06992849 1187378679.521
157	1526295 19083 239 328181 1.11 59.91 589 30.560047415126 45.64388903302 24081.934839548 990424.01867932
155	1545378 20176 239 328181 1.11 59.91 589 -2.4110585707414 0.78552531110343 -1.6467444209175 177.52342470043
154	1565554 19079 239 328181 1.11 59.91 589 17.309184680947 24.752460224059 13218.856711781 298077.09067686
156	1584633 10903 239 328181 1.11 59.91 589 7 7 4123 28861
168	1595536 24292 975 328355 1.254435132722 59.954427966276 588 0.099987486861 0.10000187641 58.799993339732 5.8799986747946
167	1619828 24295 1068 328454 1.254914206799 59.954920376646 588 0.099909506178 0.100092620644 58.800019676025 5.8800049622603
166	1644123 16699 975 328355 1.254435132722 59.954427966276 588 7 7 4116 28812
165	1660822 16702 1068 328454 1.254914206799 59.954920376646 588 7 7 4116 28812
164	1677524 917 5109 328603 2 60 59 0 0 0 0
163	1678441 1272 5109 328603 2 60 59 0.022969 0.02625 1.545469 0.040493199961
162	1679713 917 5109 328603 2 60 59 7 7 413 2891
