file 918737 1512143064                                          
version 2
run SinusoidalAccInjectionAttack-27-20171201-16:44:07-81152
attr CACCSpacing 20
attr attackAcc -30
attr attackPos 7
attr attackSpeed 150
attr attackStart 30
attr attacker 4
attr beaconInterval 0.1
attr configname SinusoidalAccInjectionAttack
attr controller 1
attr datetime 20171201-16:44:07
attr experiment SinusoidalAccInjectionAttack
attr fakeAcc "(4 == 4)"
attr fakePos "(4 == 2)"
attr fakeSpeed "(4 == 3)"
attr inifile omnetpp_27.ini
attr iterationvars "$attacker=4, $attackSpeed=150, $attackPos=7, $attackAcc=-30, $leaderSpeed=100, $controller=1, $CACCSpacing=20, $sController=\"CACC\", $attackStart=30, $0=20, $1=0, $nCars=8, $platoonSize=8, $nLanes=1, $beaconInterval=0.1, $priority=2, $packetSize=200, $ploegH=0.5, $leaderHeadway=1.2, $fakeSpeed=(4 == 3), $fakeAcc=(4 == 4), $fakePos=(4 == 2)"
attr iterationvarsf attacker=4,attackSpeed=150,attackPos=7,attackAcc=-30,leaderSpeed=100,controller=1,CACCSpacing=20,sController=CACC,attackStart=30,20,0,nCars=8,platoonSize=8,nLanes=1,beaconInterval=0.1,priority=2,packetSize=200,ploegH=0.5,leaderHeadway=1.2,fakeSpeed=(4_==_3),fakeAcc=(4_==_4),fakePos=(4_==_2)-
attr leaderHeadway 1.2
attr leaderSpeed 100
attr measurement "$attacker=4, $attackSpeed=150, $attackPos=7, $attackAcc=-30, $leaderSpeed=100, $controller=1, $CACCSpacing=20, $sController=\"CACC\", $attackStart=30, $0=20, $1=0, $nCars=8, $platoonSize=8, $nLanes=1, $beaconInterval=0.1, $priority=2, $packetSize=200, $ploegH=0.5, $leaderHeadway=1.2, $fakeSpeed=(4 == 3), $fakeAcc=(4 == 4), $fakePos=(4 == 2)"
attr nCars 8
attr nLanes 1
attr network scenario
attr packetSize 200
attr platoonSize 8
attr ploegH 0.5
attr priority 2
attr processid 81152
attr repetition 2
attr replication #2
attr resultdir results
attr runnumber 27
attr sController "\"CACC\""
attr seedset 2
param **.coreDebug false
param **.debug false
param **.headway 0.1s
param **.numberOfCars 8
param **.numberOfCarsPerPlatoon 8
param **.numberOfLanes 1
param **.numericController 1
param **.traffic.nCars 8
param **.traffic.nLanes 1
param **.traffic.platoonInsertDistance 20m
param **.traffic.platoonInsertHeadway 0s
param **.traffic.platoonInsertSpeed 100kmph
param **.traffic.platoonInsertTime "1 s"
param **.traffic.platoonLeaderHeadway 1.2s
param **.traffic.platoonSize 8
param **.traffic.platooningVType "\"vtypeauto\""
param **.traffic_type "\"PlatoonsTrafficManager\""
param *.**.nic.mac1609_4.bitrate 6Mbps
param *.**.nic.mac1609_4.txPower 100mW
param *.**.nic.mac1609_4.useServiceChannel false
param *.**.nic.phy80211p.analogueModels "xmldoc(\"config.xml\")"
param *.**.nic.phy80211p.decider "xmldoc(\"config.xml\")"
param *.**.nic.phy80211p.maxTXPower 100mW
param *.**.nic.phy80211p.sensitivity -94dBm
param *.**.nic.phy80211p.thermalNoise -95dBm
param *.**.nic.phy80211p.usePropagationDelay true
param *.**.nic.phy80211p.useThermalNoise true
param *.annotations.draw false
param *.connectionManager.alpha 2.0
param *.connectionManager.carrierFrequency "5.890e9 Hz"
param *.connectionManager.pMax 100mW
param *.connectionManager.sat -94dBm
param *.connectionManager.sendDirect true
param *.manager.autoShutdown true
param *.manager.commandLine "\"sumo --remote-port $port --seed $seed --configuration-file $configFile\""
param *.manager.configFile "\"./sumocfg/freeway.sumo.cfg\""
param *.manager.host "\"localhost\""
param *.manager.margin 25
param *.manager.moduleDisplayString "\"\""
param *.manager.moduleName "\"node\""
param *.manager.moduleType "\"Car\""
param *.manager.updateInterval 0.01s
param *.node[*].appl.attackStart 30s
param *.node[*].appl.attackerType 4
param *.node[*].appl.simulationDuration "60 s"
param *.node[*].appl_type "\"SimplePlatooningApp\""
param *.node[*].helper.nCars 8
param *.node[*].helper.nLanes 1
param *.node[*].helper.platoonSize 8
param *.node[*].helper_type "\"PositionHelper\""
param *.node[*].mobility.x 0
param *.node[*].mobility.y 0
param *.node[*].mobility.z 1.895
param *.node[*].prot.attackStart 30s
param *.node[*].prot.attackerType 4
param *.node[*].prot.attackingNode 3
param *.node[*].prot.beaconingInterval 0.1s
param *.node[*].prot.fakeAcc "(4 == 4)"
param *.node[*].prot.fakePos "(4 == 2)"
param *.node[*].prot.fakeSpeed "(4 == 3)"
param *.node[*].prot.maliciousAcc "-30 mpss"
param *.node[*].prot.maliciousSpeed 150kmph
param *.node[*].prot.packetSize 200
param *.node[*].prot.priority 2
param *.node[*].prot.shiftX "7 m"
param *.node[*].prot.useControllerAcceleration true
param *.node[*].protocol_type "\"SimplePlatooningBeaconing\""
param *.node[*].scenario.accHeadway 0.1s
param *.node[*].scenario.caccC1 0.5
param *.node[*].scenario.caccOmegaN "0.2 Hz"
param *.node[*].scenario.caccSpacing 20m
param *.node[*].scenario.caccXi 1
param *.node[*].scenario.controller "\"CACC\""
param *.node[*].scenario.engineTau "0.5 s"
param *.node[*].scenario.leaderHeadway 1.2s
param *.node[*].scenario.leaderSpeed 100kmph
param *.node[*].scenario.ploegH 0.5s
param *.node[*].scenario.ploegKd 0.7
param *.node[*].scenario.ploegKp 0.2
param *.node[*].scenario.useRealisticEngine false
param *.node[*].scenario_type "\"SinusoidalScenario\""
param *.node[*].unicast.packetLossRate 0
param *.obstacles.debug false
param *.playgroundSizeX 65000m
param *.playgroundSizeY 25000m
param *.playgroundSizeZ 50m
param *.world.use2D false
param *.world.useTorus false

vector 0  scenario.node[0].appl  distance  ETV
vector 1  scenario.node[0].appl  relativeSpeed  ETV
vector 2  scenario.node[0].appl  nodeId  ETV
vector 6  scenario.node[0].appl  acceleration  ETV
vector 7  scenario.node[0].appl  controllerAcceleration  ETV
vector 3  scenario.node[0].appl  speed  ETV
vector 4  scenario.node[0].appl  posx  ETV
vector 5  scenario.node[0].appl  posy  ETV
vector 22  scenario.node[1].appl  distance  ETV
vector 23  scenario.node[1].appl  relativeSpeed  ETV
vector 24  scenario.node[1].appl  nodeId  ETV
vector 28  scenario.node[1].appl  acceleration  ETV
vector 29  scenario.node[1].appl  controllerAcceleration  ETV
vector 25  scenario.node[1].appl  speed  ETV
vector 26  scenario.node[1].appl  posx  ETV
vector 27  scenario.node[1].appl  posy  ETV
vector 44  scenario.node[2].appl  distance  ETV
vector 45  scenario.node[2].appl  relativeSpeed  ETV
vector 46  scenario.node[2].appl  nodeId  ETV
vector 50  scenario.node[2].appl  acceleration  ETV
vector 51  scenario.node[2].appl  controllerAcceleration  ETV
vector 47  scenario.node[2].appl  speed  ETV
vector 48  scenario.node[2].appl  posx  ETV
vector 49  scenario.node[2].appl  posy  ETV
vector 66  scenario.node[3].appl  distance  ETV
vector 67  scenario.node[3].appl  relativeSpeed  ETV
vector 68  scenario.node[3].appl  nodeId  ETV
vector 72  scenario.node[3].appl  acceleration  ETV
vector 73  scenario.node[3].appl  controllerAcceleration  ETV
vector 69  scenario.node[3].appl  speed  ETV
vector 70  scenario.node[3].appl  posx  ETV
vector 71  scenario.node[3].appl  posy  ETV
vector 88  scenario.node[4].appl  distance  ETV
vector 89  scenario.node[4].appl  relativeSpeed  ETV
vector 90  scenario.node[4].appl  nodeId  ETV
vector 94  scenario.node[4].appl  acceleration  ETV
vector 95  scenario.node[4].appl  controllerAcceleration  ETV
vector 91  scenario.node[4].appl  speed  ETV
vector 92  scenario.node[4].appl  posx  ETV
vector 93  scenario.node[4].appl  posy  ETV
vector 110  scenario.node[5].appl  distance  ETV
vector 111  scenario.node[5].appl  relativeSpeed  ETV
vector 112  scenario.node[5].appl  nodeId  ETV
vector 116  scenario.node[5].appl  acceleration  ETV
vector 117  scenario.node[5].appl  controllerAcceleration  ETV
vector 113  scenario.node[5].appl  speed  ETV
vector 114  scenario.node[5].appl  posx  ETV
vector 115  scenario.node[5].appl  posy  ETV
vector 132  scenario.node[6].appl  distance  ETV
vector 133  scenario.node[6].appl  relativeSpeed  ETV
vector 134  scenario.node[6].appl  nodeId  ETV
vector 138  scenario.node[6].appl  acceleration  ETV
vector 139  scenario.node[6].appl  controllerAcceleration  ETV
vector 135  scenario.node[6].appl  speed  ETV
vector 136  scenario.node[6].appl  posx  ETV
vector 137  scenario.node[6].appl  posy  ETV
vector 154  scenario.node[7].appl  distance  ETV
vector 155  scenario.node[7].appl  relativeSpeed  ETV
vector 156  scenario.node[7].appl  nodeId  ETV
vector 160  scenario.node[7].appl  acceleration  ETV
vector 161  scenario.node[7].appl  controllerAcceleration  ETV
vector 157  scenario.node[7].appl  speed  ETV
vector 158  scenario.node[7].appl  posx  ETV
vector 159  scenario.node[7].appl  posy  ETV
vector 168  scenario.node[7].prot  frontDelay  ETV
vector 166  scenario.node[7].prot  frontDelayId  ETV
vector 146  scenario.node[6].prot  frontDelay  ETV
vector 144  scenario.node[6].prot  frontDelayId  ETV
vector 35  scenario.node[1].prot  leaderDelay  ETV
vector 33  scenario.node[1].prot  leaderDelayId  ETV
vector 36  scenario.node[1].prot  frontDelay  ETV
vector 34  scenario.node[1].prot  frontDelayId  ETV
vector 57  scenario.node[2].prot  leaderDelay  ETV
vector 55  scenario.node[2].prot  leaderDelayId  ETV
vector 79  scenario.node[3].prot  leaderDelay  ETV
vector 77  scenario.node[3].prot  leaderDelayId  ETV
vector 101  scenario.node[4].prot  leaderDelay  ETV
vector 99  scenario.node[4].prot  leaderDelayId  ETV
vector 123  scenario.node[5].prot  leaderDelay  ETV
vector 121  scenario.node[5].prot  leaderDelayId  ETV
vector 145  scenario.node[6].prot  leaderDelay  ETV
vector 143  scenario.node[6].prot  leaderDelayId  ETV
vector 167  scenario.node[7].prot  leaderDelay  ETV
vector 165  scenario.node[7].prot  leaderDelayId  ETV
vector 102  scenario.node[4].prot  frontDelay  ETV
vector 100  scenario.node[4].prot  frontDelayId  ETV
vector 80  scenario.node[3].prot  frontDelay  ETV
vector 78  scenario.node[3].prot  frontDelayId  ETV
vector 124  scenario.node[5].prot  frontDelay  ETV
vector 122  scenario.node[5].prot  frontDelayId  ETV
vector 58  scenario.node[2].prot  frontDelay  ETV
vector 56  scenario.node[2].prot  frontDelayId  ETV
vector 8  scenario.node[0].prot  nodeId  ETV
vector 9  scenario.node[0].prot  busyTime  ETV
vector 10  scenario.node[0].prot  collisions  ETV
vector 30  scenario.node[1].prot  nodeId  ETV
vector 31  scenario.node[1].prot  busyTime  ETV
vector 32  scenario.node[1].prot  collisions  ETV
vector 52  scenario.node[2].prot  nodeId  ETV
vector 53  scenario.node[2].prot  busyTime  ETV
vector 54  scenario.node[2].prot  collisions  ETV
vector 74  scenario.node[3].prot  nodeId  ETV
vector 75  scenario.node[3].prot  busyTime  ETV
vector 76  scenario.node[3].prot  collisions  ETV
vector 96  scenario.node[4].prot  nodeId  ETV
vector 97  scenario.node[4].prot  busyTime  ETV
vector 98  scenario.node[4].prot  collisions  ETV
vector 118  scenario.node[5].prot  nodeId  ETV
vector 119  scenario.node[5].prot  busyTime  ETV
vector 120  scenario.node[5].prot  collisions  ETV
vector 140  scenario.node[6].prot  nodeId  ETV
vector 141  scenario.node[6].prot  busyTime  ETV
vector 142  scenario.node[6].prot  collisions  ETV
vector 162  scenario.node[7].prot  nodeId  ETV
vector 163  scenario.node[7].prot  busyTime  ETV
vector 164  scenario.node[7].prot  collisions  ETV
7	11088 7712 232 180361 1.11 33.41 324 -1.5 1.5 0.24601868673446 514.05984025099
6	18800 10169 232 180361 1.11 33.41 324 -1.4722746794938 1.451340770512 6.5354427056388 341.3906663662
5	28969 6516 232 180361 1.11 33.41 324 36.55 36.55 11842.2 432832.41
4	35485 9719 232 180361 1.11 33.41 324 205.67107315037 1107.679233977 213007.05727652 162091920.4968
3	45204 9721 232 180361 1.11 33.41 324 26.488037261118 29.742492528104 9048.0970910531 252918.90364433
1	54925 5220 232 180361 1.11 33.41 324 0 0 0 0
0	60145 5544 232 180361 1.11 33.41 324 -1 -1 -324 324
2	65689 5220 232 180361 1.11 33.41 324 0 0 0 0
10	70909 453 5168 178056 2 33 32 0 0 0 0
9	71362 614 5168 178056 2 33 32 0.023297 0.02625 0.837047 0.021903687709
8	71976 421 5168 178056 2 33 32 0 0 0 0
29	72397 9495 233 180362 1.11 33.41 324 -1.5201885305329 1.5215379202346 0.839664874165 513.71501153672
28	81892 10476 233 180362 1.11 33.41 324 -1.4845166976844 1.4492363479558 7.3269324751397 340.96533028209
27	92368 6840 233 180362 1.11 33.41 324 36.55 36.55 11842.2 432832.41
26	99208 10037 233 180362 1.11 33.41 324 181.67107315063 1083.5043389312 205209.97995303 152021420.53546
25	109245 10050 233 180362 1.11 33.41 324 26.48258984786 29.73823345156 9046.3769735959 252823.61161308
23	119295 10971 233 180362 1.11 33.41 324 -0.081527958132366 0.092346610281723 1.6547630301817 1.2246410571664
22	130266 10052 233 180362 1.11 33.41 324 19.942679175015 20.212890321102 6501.0429211441 130444.62607472
24	140318 5544 233 180362 1.11 33.41 324 1 1 324 324
36	145862 12881 1034 180607 1.262218481716 33.462210757565 323 0.099999759937 0.100012761733 32.299992037067 3.2299984082447
35	158743 12881 1034 180607 1.262218481716 33.462210757565 323 0.099999759937 0.100012761733 32.299992037067 3.2299984082447
34	171624 8715 1034 180607 1.262218481716 33.462210757565 323 1 1 323 323
33	180339 8715 1034 180607 1.262218481716 33.462210757565 323 1 1 323 323
32	189054 453 5169 178057 2 33 32 0 0 0 0
31	189507 646 5169 178057 2 33 32 0.023296 0.02625 0.837046 0.021903641116
30	190153 453 5169 178057 2 33 32 1 1 32 32
51	190606 10398 234 180363 1.11 33.41 324 -1.4917898288586 1.4990053105845 2.0751894519475 495.46856653373
50	201004 10457 234 180363 1.11 33.41 324 -1.4755502027491 1.4415473075104 7.5421831281915 338.18122967719
49	211461 6840 234 180363 1.11 33.41 324 36.55 36.55 11842.2 432832.41
48	218301 10043 234 180363 1.11 33.41 324 157.67107315063 1059.4565218252 197429.08065245 142350858.30533
47	228344 10049 234 180363 1.11 33.41 324 26.486010879124 29.732972235831 9045.9045034419 252795.23853151
45	238393 11099 234 180363 1.11 33.41 324 -0.017774645562763 0.01657816441201 0.39920082921997 0.030388464692554
44	249492 10038 234 180363 1.11 33.41 324 19.98449325836 20.053060382146 6484.8898511743 129795.77278155
46	259530 5544 234 180363 1.11 33.41 324 2 2 648 1296
58	265074 12867 1312 180323 1.302598202214 33.402603659781 322 0.099999759924 0.100012763807 32.200005218785 3.2200010447512
57	277941 12892 1040 180613 1.262218561772 33.462210837777 323 0.099999759938 0.100012761742 32.299992037223 3.2299984082759
56	290833 8702 1312 180323 1.302598202214 33.402603659781 322 2 2 644 1288
55	299535 8722 1040 180613 1.262218561772 33.462210837777 323 2 2 646 1292
54	308257 453 5170 178058 2 33 32 0 0 0 0
53	308710 646 5170 178058 2 33 32 0.023297 0.02625 0.837047 0.021903687709
52	309356 453 5170 178058 2 33 32 2 2 64 128
73	309809 10338 235 180364 1.11 33.41 324 -1.5133685791054 1.507961590305 1.6283368789537 508.00076590673
72	320147 10485 235 180364 1.11 33.41 324 -1.4653396891678 1.4363794004321 7.6197675337259 333.56646193982
71	330632 6840 235 180364 1.11 33.41 324 36.55 36.55 11842.2 432832.41
70	337472 10043 235 180364 1.11 33.41 324 133.67108078003 1035.4636896593 189655.55920721 133065553.70114
69	347515 10051 235 180364 1.11 33.41 324 26.494697527224 29.724026757341 9045.9793386194 252796.54741528
67	357566 11165 235 180364 1.11 33.41 324 -0.015548640117991 0.011230165382802 -0.15025700882613 0.01262382611769
66	368731 10043 235 180364 1.11 33.41 324 19.962130300895 20.035282165289 6477.5229419422 129501.03017177
68	378774 5544 235 180364 1.11 33.41 324 3 3 972 2916
80	384318 12902 1176 180743 1.287874801937 33.487880077865 323 0.099999759933 0.100012763801 32.300005037146 3.2300010084234
79	397220 12890 1046 180619 1.262218641827 33.462210917807 323 0.099999759936 0.100012761748 32.299992037198 3.2299984082709
78	410110 8729 1176 180743 1.287874801937 33.487880077865 323 3 3 969 2907
77	418839 8718 1046 180619 1.262218641827 33.462210917807 323 3 3 969 2907
76	427557 453 5171 178059 2 33 32 0 0 0 0
75	428010 646 5171 178059 2 33 32 0.023297 0.02625 0.837047 0.021903687709
74	428656 453 5171 178059 2 33 32 3 3 96 288
95	429109 10447 236 180365 1.11 33.41 324 -14.359445875287 1.5 -304.70441675077 3322.6895593431
94	439556 10354 236 180365 1.11 33.41 324 -9 1.4289148559932 -259.53948460835 2212.6749429411
93	449910 6840 236 180365 1.11 33.41 324 36.55 36.55 11842.2 432832.41
92	456750 10048 236 180365 1.11 33.41 324 109.67108078003 964.33974585505 181347.01315422 123110546.28544
91	466798 10047 236 180365 1.11 33.41 324 2.0416272586695 29.713822390926 8565.4198359153 234822.19372251
89	476845 11058 236 180365 1.11 33.41 324 -0.013442531401097 26.559955706895 480.48330502883 9390.8762250879
88	487903 10031 236 180365 1.11 33.41 324 19.979107535617 66.592964924609 7002.9348629339 165878.27184518
90	497934 5544 236 180365 1.11 33.41 324 4 4 1296 5184
102	503478 13208 1108 180693 1.276580721882 33.476586160396 323 0.099999759934 0.100012763824 32.300005199732 3.2300010409406
101	516686 13221 1052 180625 1.262218721883 33.462211159503 323 0.099999759933 0.100012761751 32.299992198838 3.2299984405989
100	529907 9044 1108 180693 1.276580721882 33.476586160396 323 4 4 1292 5168
99	538951 8727 1052 180625 1.262218721883 33.462211159503 323 4 4 1292 5168
98	547678 453 5172 178060 2 33 32 0 0 0 0
97	548131 646 5172 178060 2 33 32 0.023297 0.02625 0.837047 0.021903687709
96	548777 453 5172 178060 2 33 32 4 4 128 512
139	549230 10760 238 180367 1.11 33.41 324 -4.6487630343158 1.4959038795227 -117.55795622388 788.50775581152
138	559990 10825 238 180367 1.11 33.41 324 -4.238646360437 1.4350229186363 -96.647092814877 542.25873546264
137	570815 7164 238 180367 1.11 33.41 324 36.55 36.55 11842.2 432832.41
136	577979 10364 238 180367 1.11 33.41 324 61.671076965332 948.14389985108 166171.12748478 107141633.33909
135	588343 10370 238 180367 1.11 33.41 324 18.309628280088 29.719606102249 8889.1563474353 244943.75039808
133	598713 11441 238 180367 1.11 33.41 324 -6.6297231807486 0.010619119393606 -126.45179761753 639.24546742133
132	610154 10359 238 180367 1.11 33.41 324 7.5587074382076 20.027592323733 6336.2671456168 124982.20384891
134	620513 5868 238 180367 1.11 33.41 324 6 6 1944 11664
146	626381 13216 970 180543 1.247596081439 33.447601218641 323 0.09999975992 0.100012763662 32.30000489842 3.2300009806782
145	639597 13224 1064 180637 1.262218881993 33.462211210811 323 0.099999759935 0.100012761754 32.299992090036 3.2299984188385
144	652821 9049 970 180543 1.247596081439 33.447601218641 323 6 6 1938 11628
143	661870 9050 1064 180637 1.262218881993 33.462211210811 323 6 6 1938 11628
142	670920 485 5174 178062 2 33 32 0 0 0 0
141	671405 678 5174 178062 2 33 32 0.023297 0.02625 0.837047 0.021903687709
140	672083 485 5174 178062 2 33 32 6 6 192 1152
161	672568 10764 239 180368 1.11 33.41 324 -3.8211612893581 1.486643172463 -69.752688211228 585.43049923287
160	683332 10844 239 180368 1.11 33.41 324 -3.4487718012876 1.4298755959022 -53.961305365715 385.29411610384
159	694176 7164 239 180368 1.11 33.41 324 36.55 36.55 11842.2 432832.41
158	701340 10368 239 180368 1.11 33.41 324 37.671077919006 931.24797153946 158474.05862581 99495924.122275
157	711708 10369 239 180368 1.11 33.41 324 22.534119354167 29.714489855221 8961.6825995167 248313.92884519
155	722077 11435 239 180368 1.11 33.41 324 -4.1821046104745 0.0086296017177645 -71.559781153179 215.05740453794
154	733512 10379 239 180368 1.11 33.41 324 12.980418133108 20.013502934621 6402.5193840118 126838.51352094
156	743891 5868 239 180368 1.11 33.41 324 7 7 2268 15876
168	749759 13221 832 180411 1.212137841273 33.412130087096 323 0.099999759918 0.100012762793 32.299992007041 3.2299984022397
167	762980 13208 1070 180643 1.262218962049 33.46221126646 323 0.099999759934 0.100012761756 32.299992065629 3.2299984139571
166	776188 9055 832 180411 1.212137841273 33.412130087096 323 7 7 2261 15827
165	785243 9042 1070 180643 1.262218962049 33.46221126646 323 7 7 2261 15827
164	794285 485 5175 178063 2 33 32 0 0 0 0
163	794770 678 5175 178063 2 33 32 0.023297 0.02625 0.837047 0.021903687709
162	795448 485 5175 178063 2 33 32 7 7 224 1568
110	795933 10395 237 180850 1.11 33.5 325 0 20.019410374198 6254.0932540518 123302.36098078
111	806328 11285 237 180850 1.11 33.5 325 -9.5446629370776 0.03221480794419 -202.58152060839 1542.0019381802
112	817613 5886 237 180850 1.11 33.5 325 5 5 1625 8125
113	823499 10392 237 180850 1.11 33.5 325 11.210631005106 29.715685304418 8772.2800540447 240111.06697964
114	833891 10414 237 180850 1.11 33.5 325 85.671076965332 960.59063524209 174761.42352715 115948269.37424
115	844305 7186 237 180850 1.11 33.5 325 36.55 36.55 11878.75 434168.3125
116	851491 10863 237 180850 1.11 33.5 325 -5.1736542655743 1.4321005833324 -168.16051299991 1026.2461563483
117	862354 10199 237 180850 1.11 33.5 325 -6.5426880539346 1.5066950656995 -195.76688510683 1392.6615179073
118	872553 485 5173 178061 2 33 32 5 5 160 800
119	873038 678 5173 178061 2 33 32 0.023297 0.02625 0.837047 0.021903687709
120	873716 485 5173 178061 2 33 32 0 0 0 0
121	874201 9046 1058 180631 1.262218801938 33.462211173818 323 5 5 1615 8075
122	883247 9054 1244 180811 1.297504962048 33.497510334705 323 5 5 1615 8075
123	892301 13212 1058 180631 1.262218801938 33.462211173818 323 0.099999759934 0.100012761746 32.299992133098 3.2299984274509
124	905513 13224 1244 180811 1.297504962048 33.497510334705 323 0.099999759931 0.100012763424 32.300005133875 3.2300010277691
