file 951308 1512144147                                          
version 2
run SinusoidalAccInjectionAttack-245-20171201-17:02:09-26756
attr CACCSpacing 20
attr attackAcc 30
attr attackPos 7
attr attackSpeed 150
attr attackStart 30
attr attacker 4
attr beaconInterval 0.1
attr configname SinusoidalAccInjectionAttack
attr controller 1
attr datetime 20171201-17:02:09
attr experiment SinusoidalAccInjectionAttack
attr fakeAcc "(4 == 4)"
attr fakePos "(4 == 2)"
attr fakeSpeed "(4 == 3)"
attr inifile omnetpp_245.ini
attr iterationvars "$attacker=4, $attackSpeed=150, $attackPos=7, $attackAcc=30, $leaderSpeed=50, $controller=1, $CACCSpacing=20, $sController=\"CACC\", $attackStart=30, $0=20, $1=0, $nCars=8, $platoonSize=8, $nLanes=1, $beaconInterval=0.1, $priority=2, $packetSize=200, $ploegH=0.5, $leaderHeadway=1.2, $fakeSpeed=(4 == 3), $fakeAcc=(4 == 4), $fakePos=(4 == 2)"
attr iterationvarsf attacker=4,attackSpeed=150,attackPos=7,attackAcc=30,leaderSpeed=50,controller=1,CACCSpacing=20,sController=CACC,attackStart=30,20,0,nCars=8,platoonSize=8,nLanes=1,beaconInterval=0.1,priority=2,packetSize=200,ploegH=0.5,leaderHeadway=1.2,fakeSpeed=(4_==_3),fakeAcc=(4_==_4),fakePos=(4_==_2)-
attr leaderHeadway 1.2
attr leaderSpeed 50
attr measurement "$attacker=4, $attackSpeed=150, $attackPos=7, $attackAcc=30, $leaderSpeed=50, $controller=1, $CACCSpacing=20, $sController=\"CACC\", $attackStart=30, $0=20, $1=0, $nCars=8, $platoonSize=8, $nLanes=1, $beaconInterval=0.1, $priority=2, $packetSize=200, $ploegH=0.5, $leaderHeadway=1.2, $fakeSpeed=(4 == 3), $fakeAcc=(4 == 4), $fakePos=(4 == 2)"
attr nCars 8
attr nLanes 1
attr network scenario
attr packetSize 200
attr platoonSize 8
attr ploegH 0.5
attr priority 2
attr processid 26756
attr repetition 0
attr replication #0
attr resultdir results
attr runnumber 245
attr sController "\"CACC\""
attr seedset 0
param **.coreDebug false
param **.debug false
param **.headway 0.1s
param **.numberOfCars 8
param **.numberOfCarsPerPlatoon 8
param **.numberOfLanes 1
param **.numericController 1
param **.traffic.nCars 8
param **.traffic.nLanes 1
param **.traffic.platoonInsertDistance 20m
param **.traffic.platoonInsertHeadway 0s
param **.traffic.platoonInsertSpeed 50kmph
param **.traffic.platoonInsertTime "1 s"
param **.traffic.platoonLeaderHeadway 1.2s
param **.traffic.platoonSize 8
param **.traffic.platooningVType "\"vtypeauto\""
param **.traffic_type "\"PlatoonsTrafficManager\""
param *.**.nic.mac1609_4.bitrate 6Mbps
param *.**.nic.mac1609_4.txPower 100mW
param *.**.nic.mac1609_4.useServiceChannel false
param *.**.nic.phy80211p.analogueModels "xmldoc(\"config.xml\")"
param *.**.nic.phy80211p.decider "xmldoc(\"config.xml\")"
param *.**.nic.phy80211p.maxTXPower 100mW
param *.**.nic.phy80211p.sensitivity -94dBm
param *.**.nic.phy80211p.thermalNoise -95dBm
param *.**.nic.phy80211p.usePropagationDelay true
param *.**.nic.phy80211p.useThermalNoise true
param *.annotations.draw false
param *.connectionManager.alpha 2.0
param *.connectionManager.carrierFrequency "5.890e9 Hz"
param *.connectionManager.pMax 100mW
param *.connectionManager.sat -94dBm
param *.connectionManager.sendDirect true
param *.manager.autoShutdown true
param *.manager.commandLine "\"sumo --remote-port $port --seed $seed --configuration-file $configFile\""
param *.manager.configFile "\"./sumocfg/freeway.sumo.cfg\""
param *.manager.host "\"localhost\""
param *.manager.margin 25
param *.manager.moduleDisplayString "\"\""
param *.manager.moduleName "\"node\""
param *.manager.moduleType "\"Car\""
param *.manager.updateInterval 0.01s
param *.node[*].appl.attackStart 30s
param *.node[*].appl.attackerType 4
param *.node[*].appl.simulationDuration "60 s"
param *.node[*].appl_type "\"SimplePlatooningApp\""
param *.node[*].helper.nCars 8
param *.node[*].helper.nLanes 1
param *.node[*].helper.platoonSize 8
param *.node[*].helper_type "\"PositionHelper\""
param *.node[*].mobility.x 0
param *.node[*].mobility.y 0
param *.node[*].mobility.z 1.895
param *.node[*].prot.attackStart 30s
param *.node[*].prot.attackerType 4
param *.node[*].prot.attackingNode 3
param *.node[*].prot.beaconingInterval 0.1s
param *.node[*].prot.fakeAcc "(4 == 4)"
param *.node[*].prot.fakePos "(4 == 2)"
param *.node[*].prot.fakeSpeed "(4 == 3)"
param *.node[*].prot.maliciousAcc "30 mpss"
param *.node[*].prot.maliciousSpeed 150kmph
param *.node[*].prot.packetSize 200
param *.node[*].prot.priority 2
param *.node[*].prot.shiftX "7 m"
param *.node[*].prot.useControllerAcceleration true
param *.node[*].protocol_type "\"SimplePlatooningBeaconing\""
param *.node[*].scenario.accHeadway 0.1s
param *.node[*].scenario.caccC1 0.5
param *.node[*].scenario.caccOmegaN "0.2 Hz"
param *.node[*].scenario.caccSpacing 20m
param *.node[*].scenario.caccXi 1
param *.node[*].scenario.controller "\"CACC\""
param *.node[*].scenario.engineTau "0.5 s"
param *.node[*].scenario.leaderHeadway 1.2s
param *.node[*].scenario.leaderSpeed 50kmph
param *.node[*].scenario.ploegH 0.5s
param *.node[*].scenario.ploegKd 0.7
param *.node[*].scenario.ploegKp 0.2
param *.node[*].scenario.useRealisticEngine false
param *.node[*].scenario_type "\"SinusoidalScenario\""
param *.node[*].unicast.packetLossRate 0
param *.obstacles.debug false
param *.playgroundSizeX 65000m
param *.playgroundSizeY 25000m
param *.playgroundSizeZ 50m
param *.world.use2D false
param *.world.useTorus false

vector 0  scenario.node[0].appl  distance  ETV
vector 1  scenario.node[0].appl  relativeSpeed  ETV
vector 2  scenario.node[0].appl  nodeId  ETV
vector 6  scenario.node[0].appl  acceleration  ETV
vector 7  scenario.node[0].appl  controllerAcceleration  ETV
vector 3  scenario.node[0].appl  speed  ETV
vector 4  scenario.node[0].appl  posx  ETV
vector 5  scenario.node[0].appl  posy  ETV
vector 22  scenario.node[1].appl  distance  ETV
vector 23  scenario.node[1].appl  relativeSpeed  ETV
vector 24  scenario.node[1].appl  nodeId  ETV
vector 28  scenario.node[1].appl  acceleration  ETV
vector 29  scenario.node[1].appl  controllerAcceleration  ETV
vector 25  scenario.node[1].appl  speed  ETV
vector 26  scenario.node[1].appl  posx  ETV
vector 27  scenario.node[1].appl  posy  ETV
vector 44  scenario.node[2].appl  distance  ETV
vector 45  scenario.node[2].appl  relativeSpeed  ETV
vector 46  scenario.node[2].appl  nodeId  ETV
vector 50  scenario.node[2].appl  acceleration  ETV
vector 51  scenario.node[2].appl  controllerAcceleration  ETV
vector 47  scenario.node[2].appl  speed  ETV
vector 48  scenario.node[2].appl  posx  ETV
vector 49  scenario.node[2].appl  posy  ETV
vector 66  scenario.node[3].appl  distance  ETV
vector 67  scenario.node[3].appl  relativeSpeed  ETV
vector 68  scenario.node[3].appl  nodeId  ETV
vector 72  scenario.node[3].appl  acceleration  ETV
vector 73  scenario.node[3].appl  controllerAcceleration  ETV
vector 69  scenario.node[3].appl  speed  ETV
vector 70  scenario.node[3].appl  posx  ETV
vector 71  scenario.node[3].appl  posy  ETV
vector 88  scenario.node[4].appl  distance  ETV
vector 89  scenario.node[4].appl  relativeSpeed  ETV
vector 90  scenario.node[4].appl  nodeId  ETV
vector 94  scenario.node[4].appl  acceleration  ETV
vector 95  scenario.node[4].appl  controllerAcceleration  ETV
vector 91  scenario.node[4].appl  speed  ETV
vector 92  scenario.node[4].appl  posx  ETV
vector 93  scenario.node[4].appl  posy  ETV
vector 110  scenario.node[5].appl  distance  ETV
vector 111  scenario.node[5].appl  relativeSpeed  ETV
vector 112  scenario.node[5].appl  nodeId  ETV
vector 116  scenario.node[5].appl  acceleration  ETV
vector 117  scenario.node[5].appl  controllerAcceleration  ETV
vector 113  scenario.node[5].appl  speed  ETV
vector 114  scenario.node[5].appl  posx  ETV
vector 115  scenario.node[5].appl  posy  ETV
vector 132  scenario.node[6].appl  distance  ETV
vector 133  scenario.node[6].appl  relativeSpeed  ETV
vector 134  scenario.node[6].appl  nodeId  ETV
vector 138  scenario.node[6].appl  acceleration  ETV
vector 139  scenario.node[6].appl  controllerAcceleration  ETV
vector 135  scenario.node[6].appl  speed  ETV
vector 136  scenario.node[6].appl  posx  ETV
vector 137  scenario.node[6].appl  posy  ETV
vector 154  scenario.node[7].appl  distance  ETV
vector 155  scenario.node[7].appl  relativeSpeed  ETV
vector 156  scenario.node[7].appl  nodeId  ETV
vector 160  scenario.node[7].appl  acceleration  ETV
vector 161  scenario.node[7].appl  controllerAcceleration  ETV
vector 157  scenario.node[7].appl  speed  ETV
vector 158  scenario.node[7].appl  posx  ETV
vector 159  scenario.node[7].appl  posy  ETV
vector 80  scenario.node[3].prot  frontDelay  ETV
vector 78  scenario.node[3].prot  frontDelayId  ETV
vector 58  scenario.node[2].prot  frontDelay  ETV
vector 56  scenario.node[2].prot  frontDelayId  ETV
vector 168  scenario.node[7].prot  frontDelay  ETV
vector 166  scenario.node[7].prot  frontDelayId  ETV
vector 35  scenario.node[1].prot  leaderDelay  ETV
vector 33  scenario.node[1].prot  leaderDelayId  ETV
vector 36  scenario.node[1].prot  frontDelay  ETV
vector 34  scenario.node[1].prot  frontDelayId  ETV
vector 57  scenario.node[2].prot  leaderDelay  ETV
vector 55  scenario.node[2].prot  leaderDelayId  ETV
vector 79  scenario.node[3].prot  leaderDelay  ETV
vector 77  scenario.node[3].prot  leaderDelayId  ETV
vector 101  scenario.node[4].prot  leaderDelay  ETV
vector 99  scenario.node[4].prot  leaderDelayId  ETV
vector 123  scenario.node[5].prot  leaderDelay  ETV
vector 121  scenario.node[5].prot  leaderDelayId  ETV
vector 145  scenario.node[6].prot  leaderDelay  ETV
vector 143  scenario.node[6].prot  leaderDelayId  ETV
vector 167  scenario.node[7].prot  leaderDelay  ETV
vector 165  scenario.node[7].prot  leaderDelayId  ETV
vector 124  scenario.node[5].prot  frontDelay  ETV
vector 122  scenario.node[5].prot  frontDelayId  ETV
vector 102  scenario.node[4].prot  frontDelay  ETV
vector 100  scenario.node[4].prot  frontDelayId  ETV
vector 146  scenario.node[6].prot  frontDelay  ETV
vector 144  scenario.node[6].prot  frontDelayId  ETV
vector 8  scenario.node[0].prot  nodeId  ETV
vector 9  scenario.node[0].prot  busyTime  ETV
vector 10  scenario.node[0].prot  collisions  ETV
vector 30  scenario.node[1].prot  nodeId  ETV
vector 31  scenario.node[1].prot  busyTime  ETV
vector 32  scenario.node[1].prot  collisions  ETV
vector 52  scenario.node[2].prot  nodeId  ETV
vector 53  scenario.node[2].prot  busyTime  ETV
vector 54  scenario.node[2].prot  collisions  ETV
vector 74  scenario.node[3].prot  nodeId  ETV
vector 75  scenario.node[3].prot  busyTime  ETV
vector 76  scenario.node[3].prot  collisions  ETV
vector 96  scenario.node[4].prot  nodeId  ETV
vector 97  scenario.node[4].prot  busyTime  ETV
vector 98  scenario.node[4].prot  collisions  ETV
vector 118  scenario.node[5].prot  nodeId  ETV
vector 119  scenario.node[5].prot  busyTime  ETV
vector 120  scenario.node[5].prot  collisions  ETV
vector 140  scenario.node[6].prot  nodeId  ETV
vector 141  scenario.node[6].prot  busyTime  ETV
vector 142  scenario.node[6].prot  collisions  ETV
vector 162  scenario.node[7].prot  nodeId  ETV
vector 163  scenario.node[7].prot  busyTime  ETV
vector 164  scenario.node[7].prot  collisions  ETV
7	11080 7993 232 187053 1.11 34.61 336 -1.5 1.5 -15.781542154479 536.79312957775
6	19073 10539 232 187053 1.11 34.61 336 -1.472274679513 1.4513407705126 -9.8824919942418 363.90908391426
5	29612 6768 232 187053 1.11 34.61 336 36.55 36.55 12280.8 448863.24
4	36380 10097 232 187053 1.11 34.61 336 202.82875404345 672.75528523355 147395.28203386 70858877.986434
3	46477 10090 232 187053 1.11 34.61 336 12.59914837223 15.853603639796 4712.8175116843 66346.715821518
1	56567 5424 232 187053 1.11 34.61 336 0 0 0 0
0	61991 5760 232 187053 1.11 34.61 336 -1 -1 -336 336
2	67751 5424 232 187053 1.11 34.61 336 0 0 0 0
10	73175 468 5102 183568 2 34 33 0 0 0 0
9	73643 634 5102 183568 2 34 33 0.022969 0.02625 0.862969 0.022577574961
8	74277 435 5102 183568 2 34 33 0 0 0 0
29	74712 10131 233 187054 1.11 34.61 336 -1.5112642289108 1.512070130455 -15.755495693744 536.88148869354
28	84843 10871 233 187054 1.11 34.61 336 -1.482030289071 1.4492283742985 -9.1855745742409 363.26591545199
27	95714 7104 233 187054 1.11 34.61 336 36.55 36.55 12280.8 448863.24
26	102818 10434 233 187054 1.11 34.61 336 178.82875404358 648.74060083828 139318.5048099 63965177.763143
25	113252 10440 233 187054 1.11 34.61 336 12.596070946852 15.852538032929 4712.6965865379 66343.339248456
23	123692 11382 233 187054 1.11 34.61 336 -0.07106481105334 0.076625316381502 0.21975006629758 0.93897456021261
22	135074 10431 233 187054 1.11 34.61 336 19.939712269083 20.145466383143 6732.7748054646 134912.46768747
24	145505 5760 233 187054 1.11 34.61 336 1 1 336 336
36	151265 13315 1032 186740 1.254913282269 34.554915303517 334 0.099909240509 0.100091242722 33.400015262798 3.3400036026396
35	164580 13315 1032 186740 1.254913282269 34.554915303517 334 0.099909240509 0.100091242722 33.400015262798 3.3400036026396
34	177895 9039 1032 186740 1.254913282269 34.554915303517 334 1 1 334 334
33	186934 9039 1032 186740 1.254913282269 34.554915303517 334 1 1 334 334
32	195973 468 5103 183569 2 34 33 0 0 0 0
31	196441 667 5103 183569 2 34 33 0.022969 0.02625 0.862969 0.022577574961
30	197108 468 5103 183569 2 34 33 1 1 33 33
51	197576 10819 234 187055 1.11 34.61 336 -1.4951715933761 1.4969403168635 -15.168472682951 525.28473161159
50	208395 10872 234 187055 1.11 34.61 336 -1.4749478834394 1.4483793291777 -8.6771004201328 360.8325568003
49	219267 7104 234 187055 1.11 34.61 336 36.55 36.55 12280.8 448863.24
48	226371 10425 234 187055 1.11 34.61 336 154.82875404358 624.80098926247 131258.10800089 57475569.559242
47	236796 10424 234 187055 1.11 34.61 336 12.599772593804 15.849534689697 4713.3176362732 66359.162494116
45	247220 11378 234 187055 1.11 34.61 336 -0.042015735458428 0.035321629897977 -0.52919398955171 0.22487784592735
44	258598 10412 234 187055 1.11 34.61 336 19.926036220404 20.070368602191 6716.4092300035 134256.7833832
46	269010 5760 234 187055 1.11 34.61 336 2 2 672 1344
58	274770 13266 900 186602 1.22965940166 34.529661440639 334 0.099987239937 0.100000243927 33.400002280529 3.3400004571015
57	288036 13311 1038 186746 1.254913362325 34.554915383381 334 0.099909240517 0.100091242737 33.400015262606 3.3400036026012
56	301347 9001 900 186602 1.22965940166 34.529661440639 334 2 2 668 1336
55	310348 9037 1038 186746 1.254913362325 34.554915383381 334 2 2 668 1336
54	319385 468 5104 183570 2 34 33 0 0 0 0
53	319853 667 5104 183570 2 34 33 0.022969 0.02625 0.862969 0.022577574961
52	320520 468 5104 183570 2 34 33 2 2 66 132
73	320988 10815 235 187056 1.11 34.61 336 -1.4890347545755 1.4892302577913 -14.83161364328 511.26602357224
72	331803 10874 235 187056 1.11 34.61 336 -1.4633940821509 1.4358250214173 -8.3604688738903 354.25037008542
71	342677 7104 235 187056 1.11 34.61 336 36.55 36.55 12280.8 448863.24
70	349781 10427 235 187056 1.11 34.61 336 130.82875404358 600.81371575321 123194.6827311 51369567.813422
69	360208 10426 235 187056 1.11 34.61 336 12.612563444857 15.839370548536 4713.4558917261 66359.026490305
67	370634 11515 235 187056 1.11 34.61 336 -0.022576862845417 0.018794908418132 -0.051484448726381 0.04104973978694
66	382149 10395 235 187056 1.11 34.61 336 19.965709014146 20.045084661091 6719.4280348991 134377.23738557
68	392544 5760 235 187056 1.11 34.61 336 3 3 1008 3024
80	398304 13305 832 186540 1.213906321605 34.513908360922 334 0.099987241264 0.100000243937 33.400002280867 3.3400004571689
79	411609 13263 1044 186752 1.25491344238 34.5549154634 334 0.099909240518 0.100091242747 33.40001526257 3.340003602594
78	424872 9034 832 186540 1.213906321605 34.513908360922 334 3 3 1002 3006
77	433906 8984 1044 186752 1.25491344238 34.5549154634 334 3 3 1002 3006
76	442890 468 5105 183571 2 34 33 0 0 0 0
75	443358 667 5105 183571 2 34 33 0.022968 0.02625 0.862968 0.022577529024
74	444025 468 5105 183571 2 34 33 3 3 99 297
117	444493 10618 237 187058 1.11 34.61 336 -1.4897290259489 1.5 53.086946967239 527.92012952048
116	455111 11194 237 187058 1.11 34.61 336 -1.44781117016 1.4994606988967 46.41916333545 374.01567579873
115	466305 7440 237 187058 1.11 34.61 336 36.55 36.55 12280.8 448863.24
114	473745 10768 237 187058 1.11 34.61 336 82.828754043579 558.33895406663 107111.11896747 40366139.579399
113	484513 10766 237 187058 1.11 34.61 336 12.626204312527 18.469857043238 4770.6053463687 68148.330749927
111	495279 11600 237 187058 1.11 34.61 336 -0.038427828758104 5.5508990636622 146.20929225096 564.38129839581
110	506879 10749 237 187058 1.11 34.61 336 19.97386491418 34.416084582975 6968.2423889006 146553.95678176
112	517628 6096 237 187058 1.11 34.61 336 5 5 1680 8400
124	523724 13634 1172 186886 1.265750082823 34.565752206879 334 0.099987240401 0.100000243921 33.400002365606 3.3400004741169
123	537358 13639 1056 186764 1.254913602491 34.554915606143 334 0.09990924051 0.100091242743 33.400015245202 3.3400035991203
122	550997 9372 1172 186886 1.265750082823 34.565752206879 334 5 5 1670 8350
121	560369 9375 1056 186764 1.254913602491 34.554915606143 334 5 5 1670 8350
120	569744 501 5107 183573 2 34 33 0 0 0 0
119	570245 700 5107 183573 2 34 33 0.022968 0.02625 0.862968 0.022577529024
118	570945 501 5107 183573 2 34 33 5 5 165 825
139	571446 11124 238 187059 1.11 34.61 336 -1.4807666973144 1.5050357425287 23.066828634941 465.50329872143
138	582570 11183 238 187059 1.11 34.61 336 -1.4505591765344 1.4413191189872 21.735149419976 330.58094691469
137	593753 7440 238 187059 1.11 34.61 336 36.55 36.55 12280.8 448863.24
136	601193 10757 238 187059 1.11 34.61 336 58.828754043579 531.66834770761 99024.877164734 35395280.150245
135	611950 10760 238 187059 1.11 34.61 336 12.620062935452 16.046941968782 4743.0433710657 67235.816749248
133	622710 11718 238 187059 1.11 34.61 336 -0.019950013541267 2.409414052558 27.097783669715 43.618075207482
132	634428 10756 238 187059 1.11 34.61 336 19.991561027077 22.622148057529 6741.6905632312 135301.1579531
134	645184 6096 238 187059 1.11 34.61 336 6 6 2016 12096
146	651280 13644 1312 187015 1.305160322989 34.605162325016 334 0.099987240083 0.100000243926 33.400002243577 3.3400004497111
145	664924 13640 1062 186770 1.254913682546 34.554915694625 334 0.099909240511 0.100091242741 33.400015253629 3.3400036008057
144	678564 9379 1312 187015 1.305160322989 34.605162325016 334 6 6 2004 12024
143	687943 9373 1062 186770 1.254913682546 34.554915694625 334 6 6 2004 12024
142	697316 501 5108 183574 2 34 33 0 0 0 0
141	697817 700 5108 183574 2 34 33 0.022969 0.02625 0.862969 0.022577574961
140	698517 501 5108 183574 2 34 33 6 6 198 1188
161	699018 11120 239 187060 1.11 34.61 336 -1.4935373322477 1.5005617827811 7.0273686092927 482.69160612881
160	710138 11220 239 187060 1.11 34.61 336 -1.4563373230494 1.4382185082649 8.1469182689167 330.0019778723
159	721358 7440 239 187060 1.11 34.61 336 36.55 36.55 12280.8 448863.24
158	728798 10770 239 187060 1.11 34.61 336 34.82875213623 506.28921458962 90948.386371443 30823804.839532
157	739568 10759 239 187060 1.11 34.61 336 12.616898534539 15.829356398145 4728.7804864007 66799.23554815
155	750327 11899 239 187060 1.11 34.61 336 -0.0092142790346479 1.327328478277 14.045533170806 11.981951496369
154	762226 10763 239 187060 1.11 34.61 336 19.980359086637 21.352505274053 6732.205535598 134896.973013
156	772989 6096 239 187060 1.11 34.61 336 7 7 2352 16464
168	779085 13644 975 186677 1.254434801937 34.554436836561 334 0.099987240242 0.10000024393 33.400002276174 3.3400004562304
167	792729 13641 1068 186776 1.254913762602 34.554915779017 334 0.099909240517 0.100091242748 33.400015257965 3.3400036016729
166	806370 9378 975 186677 1.254434801937 34.554436836561 334 7 7 2338 16366
165	815748 9370 1068 186776 1.254913762602 34.554915779017 334 7 7 2338 16366
164	825118 501 5109 183575 2 34 33 0 0 0 0
163	825619 700 5109 183575 2 34 33 0.022969 0.02625 0.862969 0.022577574961
162	826319 501 5109 183575 2 34 33 7 7 231 1617
88	826820 10427 236 187061 1.11 34.61 337 0 20.024761132492 6428.4643638196 126094.70301055
89	837247 11496 236 187061 1.11 34.61 337 -10.956582188291 0.013417882732991 -215.25735266025 1438.9033943139
90	848743 5778 236 187061 1.11 34.61 337 4 4 1348 5392
91	854521 10378 236 187061 1.11 34.61 337 12.623206078426 24.0457561069 4941.8860229937 74030.00051342
92	864899 10472 236 187061 1.11 34.61 337 106.82875404358 596.86655663088 116023.17261141 46341623.87401
93	875371 7126 236 187061 1.11 34.61 337 36.55 36.55 12317.35 450199.1425
94	882497 10715 236 187061 1.11 34.61 337 -1.4529610514664 2.5 105.06282671348 586.0047827279
95	893212 10798 236 187061 1.11 34.61 337 -1.4821468247393 15.597271614309 591.01786039287 8424.6603835226
96	904010 468 5106 183572 2 34 33 4 4 132 528
97	904478 667 5106 183572 2 34 33 0.022969 0.02625 0.862969 0.022577574961
98	905145 468 5106 183572 2 34 33 0 0 0 0
99	905613 9038 1050 186758 1.254913522436 34.554915478741 334 4 4 1336 5344
100	914651 9372 1246 186949 1.303564162878 34.603553107805 334 4 4 1336 5344
101	924023 13640 1050 186758 1.254913522436 34.554915478741 334 0.099909240516 0.100091242749 33.400015197855 3.3400035896507
102	937663 13645 1246 186949 1.303564162878 34.603553107805 334 0.099987214037 0.100000243924 33.399989186477 3.3399978384543
