file 956384 1512144086                                          
version 2
run SinusoidalAccInjectionAttack-226-20171201-17:01:03-13584
attr CACCSpacing 20
attr attackAcc 10
attr attackPos 7
attr attackSpeed 150
attr attackStart 30
attr attacker 4
attr beaconInterval 0.1
attr configname SinusoidalAccInjectionAttack
attr controller 1
attr datetime 20171201-17:01:03
attr experiment SinusoidalAccInjectionAttack
attr fakeAcc "(4 == 4)"
attr fakePos "(4 == 2)"
attr fakeSpeed "(4 == 3)"
attr inifile omnetpp_226.ini
attr iterationvars "$attacker=4, $attackSpeed=150, $attackPos=7, $attackAcc=10, $leaderSpeed=150, $controller=1, $CACCSpacing=20, $sController=\"CACC\", $attackStart=30, $0=20, $1=0, $nCars=8, $platoonSize=8, $nLanes=1, $beaconInterval=0.1, $priority=2, $packetSize=200, $ploegH=0.5, $leaderHeadway=1.2, $fakeSpeed=(4 == 3), $fakeAcc=(4 == 4), $fakePos=(4 == 2)"
attr iterationvarsf attacker=4,attackSpeed=150,attackPos=7,attackAcc=10,leaderSpeed=150,controller=1,CACCSpacing=20,sController=CACC,attackStart=30,20,0,nCars=8,platoonSize=8,nLanes=1,beaconInterval=0.1,priority=2,packetSize=200,ploegH=0.5,leaderHeadway=1.2,fakeSpeed=(4_==_3),fakeAcc=(4_==_4),fakePos=(4_==_2)-
attr leaderHeadway 1.2
attr leaderSpeed 150
attr measurement "$attacker=4, $attackSpeed=150, $attackPos=7, $attackAcc=10, $leaderSpeed=150, $controller=1, $CACCSpacing=20, $sController=\"CACC\", $attackStart=30, $0=20, $1=0, $nCars=8, $platoonSize=8, $nLanes=1, $beaconInterval=0.1, $priority=2, $packetSize=200, $ploegH=0.5, $leaderHeadway=1.2, $fakeSpeed=(4 == 3), $fakeAcc=(4 == 4), $fakePos=(4 == 2)"
attr nCars 8
attr nLanes 1
attr network scenario
attr packetSize 200
attr platoonSize 8
attr ploegH 0.5
attr priority 2
attr processid 13584
attr repetition 1
attr replication #1
attr resultdir results
attr runnumber 226
attr sController "\"CACC\""
attr seedset 1
param **.coreDebug false
param **.debug false
param **.headway 0.1s
param **.numberOfCars 8
param **.numberOfCarsPerPlatoon 8
param **.numberOfLanes 1
param **.numericController 1
param **.traffic.nCars 8
param **.traffic.nLanes 1
param **.traffic.platoonInsertDistance 20m
param **.traffic.platoonInsertHeadway 0s
param **.traffic.platoonInsertSpeed 150kmph
param **.traffic.platoonInsertTime "1 s"
param **.traffic.platoonLeaderHeadway 1.2s
param **.traffic.platoonSize 8
param **.traffic.platooningVType "\"vtypeauto\""
param **.traffic_type "\"PlatoonsTrafficManager\""
param *.**.nic.mac1609_4.bitrate 6Mbps
param *.**.nic.mac1609_4.txPower 100mW
param *.**.nic.mac1609_4.useServiceChannel false
param *.**.nic.phy80211p.analogueModels "xmldoc(\"config.xml\")"
param *.**.nic.phy80211p.decider "xmldoc(\"config.xml\")"
param *.**.nic.phy80211p.maxTXPower 100mW
param *.**.nic.phy80211p.sensitivity -94dBm
param *.**.nic.phy80211p.thermalNoise -95dBm
param *.**.nic.phy80211p.usePropagationDelay true
param *.**.nic.phy80211p.useThermalNoise true
param *.annotations.draw false
param *.connectionManager.alpha 2.0
param *.connectionManager.carrierFrequency "5.890e9 Hz"
param *.connectionManager.pMax 100mW
param *.connectionManager.sat -94dBm
param *.connectionManager.sendDirect true
param *.manager.autoShutdown true
param *.manager.commandLine "\"sumo --remote-port $port --seed $seed --configuration-file $configFile\""
param *.manager.configFile "\"./sumocfg/freeway.sumo.cfg\""
param *.manager.host "\"localhost\""
param *.manager.margin 25
param *.manager.moduleDisplayString "\"\""
param *.manager.moduleName "\"node\""
param *.manager.moduleType "\"Car\""
param *.manager.updateInterval 0.01s
param *.node[*].appl.attackStart 30s
param *.node[*].appl.attackerType 4
param *.node[*].appl.simulationDuration "60 s"
param *.node[*].appl_type "\"SimplePlatooningApp\""
param *.node[*].helper.nCars 8
param *.node[*].helper.nLanes 1
param *.node[*].helper.platoonSize 8
param *.node[*].helper_type "\"PositionHelper\""
param *.node[*].mobility.x 0
param *.node[*].mobility.y 0
param *.node[*].mobility.z 1.895
param *.node[*].prot.attackStart 30s
param *.node[*].prot.attackerType 4
param *.node[*].prot.attackingNode 3
param *.node[*].prot.beaconingInterval 0.1s
param *.node[*].prot.fakeAcc "(4 == 4)"
param *.node[*].prot.fakePos "(4 == 2)"
param *.node[*].prot.fakeSpeed "(4 == 3)"
param *.node[*].prot.maliciousAcc "10 mpss"
param *.node[*].prot.maliciousSpeed 150kmph
param *.node[*].prot.packetSize 200
param *.node[*].prot.priority 2
param *.node[*].prot.shiftX "7 m"
param *.node[*].prot.useControllerAcceleration true
param *.node[*].protocol_type "\"SimplePlatooningBeaconing\""
param *.node[*].scenario.accHeadway 0.1s
param *.node[*].scenario.caccC1 0.5
param *.node[*].scenario.caccOmegaN "0.2 Hz"
param *.node[*].scenario.caccSpacing 20m
param *.node[*].scenario.caccXi 1
param *.node[*].scenario.controller "\"CACC\""
param *.node[*].scenario.engineTau "0.5 s"
param *.node[*].scenario.leaderHeadway 1.2s
param *.node[*].scenario.leaderSpeed 150kmph
param *.node[*].scenario.ploegH 0.5s
param *.node[*].scenario.ploegKd 0.7
param *.node[*].scenario.ploegKp 0.2
param *.node[*].scenario.useRealisticEngine false
param *.node[*].scenario_type "\"SinusoidalScenario\""
param *.node[*].unicast.packetLossRate 0
param *.obstacles.debug false
param *.playgroundSizeX 65000m
param *.playgroundSizeY 25000m
param *.playgroundSizeZ 50m
param *.world.use2D false
param *.world.useTorus false

vector 0  scenario.node[0].appl  distance  ETV
vector 1  scenario.node[0].appl  relativeSpeed  ETV
vector 2  scenario.node[0].appl  nodeId  ETV
vector 6  scenario.node[0].appl  acceleration  ETV
vector 7  scenario.node[0].appl  controllerAcceleration  ETV
vector 3  scenario.node[0].appl  speed  ETV
vector 4  scenario.node[0].appl  posx  ETV
vector 5  scenario.node[0].appl  posy  ETV
vector 22  scenario.node[1].appl  distance  ETV
vector 23  scenario.node[1].appl  relativeSpeed  ETV
vector 24  scenario.node[1].appl  nodeId  ETV
vector 28  scenario.node[1].appl  acceleration  ETV
vector 29  scenario.node[1].appl  controllerAcceleration  ETV
vector 25  scenario.node[1].appl  speed  ETV
vector 26  scenario.node[1].appl  posx  ETV
vector 27  scenario.node[1].appl  posy  ETV
vector 44  scenario.node[2].appl  distance  ETV
vector 45  scenario.node[2].appl  relativeSpeed  ETV
vector 46  scenario.node[2].appl  nodeId  ETV
vector 50  scenario.node[2].appl  acceleration  ETV
vector 51  scenario.node[2].appl  controllerAcceleration  ETV
vector 47  scenario.node[2].appl  speed  ETV
vector 48  scenario.node[2].appl  posx  ETV
vector 49  scenario.node[2].appl  posy  ETV
vector 66  scenario.node[3].appl  distance  ETV
vector 67  scenario.node[3].appl  relativeSpeed  ETV
vector 68  scenario.node[3].appl  nodeId  ETV
vector 72  scenario.node[3].appl  acceleration  ETV
vector 73  scenario.node[3].appl  controllerAcceleration  ETV
vector 69  scenario.node[3].appl  speed  ETV
vector 70  scenario.node[3].appl  posx  ETV
vector 71  scenario.node[3].appl  posy  ETV
vector 88  scenario.node[4].appl  distance  ETV
vector 89  scenario.node[4].appl  relativeSpeed  ETV
vector 90  scenario.node[4].appl  nodeId  ETV
vector 94  scenario.node[4].appl  acceleration  ETV
vector 95  scenario.node[4].appl  controllerAcceleration  ETV
vector 91  scenario.node[4].appl  speed  ETV
vector 92  scenario.node[4].appl  posx  ETV
vector 93  scenario.node[4].appl  posy  ETV
vector 110  scenario.node[5].appl  distance  ETV
vector 111  scenario.node[5].appl  relativeSpeed  ETV
vector 112  scenario.node[5].appl  nodeId  ETV
vector 116  scenario.node[5].appl  acceleration  ETV
vector 117  scenario.node[5].appl  controllerAcceleration  ETV
vector 113  scenario.node[5].appl  speed  ETV
vector 114  scenario.node[5].appl  posx  ETV
vector 115  scenario.node[5].appl  posy  ETV
vector 132  scenario.node[6].appl  distance  ETV
vector 133  scenario.node[6].appl  relativeSpeed  ETV
vector 134  scenario.node[6].appl  nodeId  ETV
vector 138  scenario.node[6].appl  acceleration  ETV
vector 139  scenario.node[6].appl  controllerAcceleration  ETV
vector 135  scenario.node[6].appl  speed  ETV
vector 136  scenario.node[6].appl  posx  ETV
vector 137  scenario.node[6].appl  posy  ETV
vector 154  scenario.node[7].appl  distance  ETV
vector 155  scenario.node[7].appl  relativeSpeed  ETV
vector 156  scenario.node[7].appl  nodeId  ETV
vector 160  scenario.node[7].appl  acceleration  ETV
vector 161  scenario.node[7].appl  controllerAcceleration  ETV
vector 157  scenario.node[7].appl  speed  ETV
vector 158  scenario.node[7].appl  posx  ETV
vector 159  scenario.node[7].appl  posy  ETV
vector 58  scenario.node[2].prot  frontDelay  ETV
vector 56  scenario.node[2].prot  frontDelayId  ETV
vector 102  scenario.node[4].prot  frontDelay  ETV
vector 100  scenario.node[4].prot  frontDelayId  ETV
vector 146  scenario.node[6].prot  frontDelay  ETV
vector 144  scenario.node[6].prot  frontDelayId  ETV
vector 168  scenario.node[7].prot  frontDelay  ETV
vector 166  scenario.node[7].prot  frontDelayId  ETV
vector 124  scenario.node[5].prot  frontDelay  ETV
vector 122  scenario.node[5].prot  frontDelayId  ETV
vector 35  scenario.node[1].prot  leaderDelay  ETV
vector 33  scenario.node[1].prot  leaderDelayId  ETV
vector 36  scenario.node[1].prot  frontDelay  ETV
vector 34  scenario.node[1].prot  frontDelayId  ETV
vector 57  scenario.node[2].prot  leaderDelay  ETV
vector 55  scenario.node[2].prot  leaderDelayId  ETV
vector 79  scenario.node[3].prot  leaderDelay  ETV
vector 77  scenario.node[3].prot  leaderDelayId  ETV
vector 101  scenario.node[4].prot  leaderDelay  ETV
vector 99  scenario.node[4].prot  leaderDelayId  ETV
vector 123  scenario.node[5].prot  leaderDelay  ETV
vector 121  scenario.node[5].prot  leaderDelayId  ETV
vector 145  scenario.node[6].prot  leaderDelay  ETV
vector 143  scenario.node[6].prot  leaderDelayId  ETV
vector 167  scenario.node[7].prot  leaderDelay  ETV
vector 165  scenario.node[7].prot  leaderDelayId  ETV
vector 80  scenario.node[3].prot  frontDelay  ETV
vector 78  scenario.node[3].prot  frontDelayId  ETV
vector 8  scenario.node[0].prot  nodeId  ETV
vector 9  scenario.node[0].prot  busyTime  ETV
vector 10  scenario.node[0].prot  collisions  ETV
vector 30  scenario.node[1].prot  nodeId  ETV
vector 31  scenario.node[1].prot  busyTime  ETV
vector 32  scenario.node[1].prot  collisions  ETV
vector 52  scenario.node[2].prot  nodeId  ETV
vector 53  scenario.node[2].prot  busyTime  ETV
vector 54  scenario.node[2].prot  collisions  ETV
vector 74  scenario.node[3].prot  nodeId  ETV
vector 75  scenario.node[3].prot  busyTime  ETV
vector 76  scenario.node[3].prot  collisions  ETV
vector 96  scenario.node[4].prot  nodeId  ETV
vector 97  scenario.node[4].prot  busyTime  ETV
vector 98  scenario.node[4].prot  collisions  ETV
vector 118  scenario.node[5].prot  nodeId  ETV
vector 119  scenario.node[5].prot  busyTime  ETV
vector 120  scenario.node[5].prot  collisions  ETV
vector 140  scenario.node[6].prot  nodeId  ETV
vector 141  scenario.node[6].prot  busyTime  ETV
vector 142  scenario.node[6].prot  collisions  ETV
vector 162  scenario.node[7].prot  nodeId  ETV
vector 163  scenario.node[7].prot  busyTime  ETV
vector 164  scenario.node[7].prot  collisions  ETV
7	11086 8063 232 188167 1.11 34.81 338 -1.5 1.5 -15.315259418771 536.99541531975
6	19149 10615 232 188167 1.11 34.81 338 -1.4722746794739 1.4513407705138 -11.875214470847 365.91846452059
5	29764 6810 232 188167 1.11 34.81 338 36.55 36.55 12353.9 451535.045
4	36574 10155 232 188167 1.11 34.81 338 204.77205924948 1613.3748062318 307604.26074925 336116143.90868
3	46729 10139 232 188167 1.11 34.81 338 40.376926150007 43.631381416411 14127.284594867 590720.51774033
1	56868 5458 232 188167 1.11 34.81 338 0 0 0 0
0	62326 5796 232 188167 1.11 34.81 338 -1 -1 -338 338
2	68122 5458 232 188167 1.11 34.81 338 0 0 0 0
10	73580 468 5168 183634 2 34 33 0 0 0 0
9	74048 634 5168 183634 2 34 33 0.023297 0.02625 0.863297 0.022592750209
8	74682 435 5168 183634 2 34 33 0 0 0 0
29	75117 9780 233 188168 1.11 34.81 338 -1.546626143022 1.5427619281214 -17.989795060354 543.80507764234
28	84897 10941 233 188168 1.11 34.81 338 -1.4899163932128 1.4506836311455 -11.048214593086 366.91614910304
27	95838 7148 233 188168 1.11 34.81 338 36.55 36.55 12353.9 451535.045
26	102986 10490 233 188168 1.11 34.81 338 180.77205924988 1589.1892212873 299433.75003028 321415041.62419
25	113476 10497 233 188168 1.11 34.81 338 40.36586374928 43.621212840124 14125.458816752 590567.51030613
23	123973 11305 233 188168 1.11 34.81 338 -0.12212624307604 0.14226265005876 1.9445302598583 2.7652352132672
22	135278 10487 233 188168 1.11 34.81 338 19.955407948417 20.418045624699 6818.4742034032 137554.57098024
24	145765 5796 233 188168 1.11 34.81 338 1 1 338 338
36	151561 13421 1238 188060 1.297803401661 34.79780987308 336 0.099999269862 0.100012284051 33.600005752305 3.3600011534904
35	164982 13421 1238 188060 1.297803401661 34.79780987308 336 0.099999269862 0.100012284051 33.600005752305 3.3600011534904
34	178403 9085 1238 188060 1.297803401661 34.79780987308 336 1 1 336 336
33	187488 9085 1238 188060 1.297803401661 34.79780987308 336 1 1 336 336
32	196573 468 5169 183635 2 34 33 0 0 0 0
31	197041 667 5169 183635 2 34 33 0.023297 0.02625 0.863297 0.022592750209
30	197708 468 5169 183635 2 34 33 1 1 33 33
51	198176 10777 234 188169 1.11 34.81 338 -1.5013789209022 1.5 -15.606316646514 524.01487356129
50	208953 10925 234 188169 1.11 34.81 338 -1.479546538588 1.4451253725255 -10.941317988058 362.92599615676
49	219878 7148 234 188169 1.11 34.81 338 36.55 36.55 12353.9 451535.045
48	227026 10478 234 188169 1.11 34.81 338 156.77205924988 1565.1082362212 291306.80298187 307203632.85978
47	237504 10487 234 188169 1.11 34.81 338 40.369409602404 43.610630294698 14124.652618079 590497.45450736
45	247991 11669 234 188169 1.11 34.81 338 -0.0071014910186449 0.013626162317358 0.91668081911678 0.012158056089469
44	259660 10476 234 188169 1.11 34.81 338 19.999999930804 20.093426207757 6774.9309244396 135798.16677589
46	270136 5796 234 188169 1.11 34.81 338 2 2 676 1352
58	275932 13466 832 188205 1.212436360941 34.812442114059 337 0.099999271138 0.100012284181 33.700005034004 3.3700010098306
57	289398 13436 1244 188066 1.297803481717 34.797809953407 336 0.099999269858 0.100012284053 33.600005752576 3.3600011535446
56	302834 9119 832 188205 1.212436360941 34.812442114059 337 2 2 674 1348
55	311953 9094 1244 188066 1.297803481717 34.797809953407 336 2 2 672 1344
54	321047 468 5170 183636 2 34 33 0 0 0 0
53	321515 667 5170 183636 2 34 33 0.023296 0.02625 0.863296 0.022592703616
52	322182 468 5170 183636 2 34 33 2 2 66 132
73	322650 10864 235 188170 1.11 34.81 338 -1.4907242770993 1.4960972917309 -15.747454578917 513.18256869447
72	333514 10923 235 188170 1.11 34.81 338 -1.4676550605813 1.4431325513797 -10.730103361999 359.5099719253
71	344437 7148 235 188170 1.11 34.81 338 36.55 36.55 12353.9 451535.045
70	351585 10490 235 188170 1.11 34.81 338 132.77205924988 1541.1510042784 283201.81496181 293431777.16472
69	362075 10488 235 188170 1.11 34.81 338 40.377585324869 43.602194097468 14125.088287682 590531.58994541
67	372563 11605 235 188170 1.11 34.81 338 -0.02186181008507 0.014939177160002 -0.32625642305524 0.027184819489617
66	384168 10465 235 188170 1.11 34.81 338 19.935010615026 20.042503250507 6752.99673345 134920.23903803
68	394633 5796 235 188170 1.11 34.81 338 3 3 1014 3042
80	400429 13429 1312 188129 1.307225561772 34.807219033321 336 0.09999926985 0.100012284027 33.599992752435 3.3599985533663
79	413858 13435 1250 188072 1.297803561772 34.797810033321 336 0.099999269849 0.100012284055 33.600005752435 3.3600011535164
78	427293 9094 1312 188129 1.307225561772 34.807219033321 336 3 3 1008 3024
77	436387 9101 1250 188072 1.297803561772 34.797810033321 336 3 3 1008 3024
76	445488 468 5171 183637 2 34 33 0 0 0 0
75	445956 667 5171 183637 2 34 33 0.023297 0.02625 0.863297 0.022592750209
74	446623 468 5171 183637 2 34 33 3 3 99 297
117	447091 10801 237 188172 1.11 34.81 338 -1.5271094734416 3.624746984791 51.564066421345 566.42732118491
116	457892 11262 237 188172 1.11 34.81 338 -1.4653752191492 1.4991102038508 46.022080937728 378.7477902411
115	469154 7486 237 188172 1.11 34.81 338 36.55 36.55 12353.9 451535.045
114	476640 10823 237 188172 1.11 34.81 338 84.772059249878 1501.6438266033 267089.72403078 267346227.16687
113	487463 10823 237 188172 1.11 34.81 338 40.377594414359 46.238367106882 14211.989567414 598069.6829607
111	498286 11717 237 188172 1.11 34.81 338 -0.021219186212392 3.8586655098931 108.34626582841 321.95906447544
110	510003 10798 237 188172 1.11 34.81 338 19.94704909897 30.707431016661 6935.7659607818 143426.60932223
112	520801 6134 237 188172 1.11 34.81 338 5 5 1690 8450
124	526935 13771 1178 188006 1.297390081439 34.797383650867 336 0.099999274346 0.100012284665 33.599992850314 3.3599985729421
123	540706 13771 1262 188084 1.297803721883 34.797810165476 336 0.099999268017 0.100012284042 33.600005724479 3.3600011479252
122	554477 9430 1178 188006 1.297390081439 34.797383650867 336 5 5 1680 8400
121	563907 9435 1262 188084 1.297803721883 34.797810165476 336 5 5 1680 8400
120	573342 501 5173 183639 2 34 33 0 0 0 0
119	573843 700 5173 183639 2 34 33 0.023297 0.02625 0.863297 0.022592750209
118	574543 501 5173 183639 2 34 33 5 5 165 825
139	575044 11044 238 188173 1.11 34.81 338 -1.4994812226045 2.5681873857523 24.251403690673 493.16007632542
138	586088 11276 238 188173 1.11 34.81 338 -1.4608902372167 1.4706459214644 22.638852438406 339.53875870192
137	597364 7486 238 188173 1.11 34.81 338 36.55 36.55 12353.9 451535.045
136	604850 10827 238 188173 1.11 34.81 338 60.772061157227 1473.6386621346 258926.74872208 254572120.14483
135	615677 10835 238 188173 1.11 34.81 338 40.383705408354 43.916772078544 14171.122358512 594454.19020275
133	626512 11692 238 188173 1.11 34.81 338 -0.022227650012752 2.3144609204472 40.406988092362 58.553178100698
132	638204 10821 238 188173 1.11 34.81 338 19.97054405698 23.958732568094 6810.157964526 137325.61718302
134	649025 6134 238 188173 1.11 34.81 338 6 6 2028 12168
146	655159 13804 970 188343 1.248713681163 34.848706419025 337 0.099999268757 0.100012284096 33.699992018748 3.3699984066294
145	668963 13745 1268 188090 1.297803801938 34.797810258736 336 0.099999268782 0.100012284041 33.600005737684 3.3600011505662
144	682708 9459 970 188343 1.248713681163 34.848706419025 337 6 6 2022 12132
143	692167 9417 1268 188090 1.297803801938 34.797810258736 336 6 6 2016 12096
142	701584 501 5174 183640 2 34 33 0 0 0 0
141	702085 700 5174 183640 2 34 33 0.023297 0.02625 0.863297 0.022592750209
140	702785 501 5174 183640 2 34 33 6 6 198 1188
161	703286 10326 239 188174 1.11 34.81 338 -1.5084785475029 1.5101632366429 7.5707563814386 490.3522137989
160	713612 11303 239 188174 1.11 34.81 338 -1.4625053334221 1.451729702621 8.4048212562337 334.90038124418
159	724915 7486 239 188174 1.11 34.81 338 36.55 36.55 12353.9 451535.045
158	732401 10813 239 188174 1.11 34.81 338 36.772060680389 1447.2387366145 250780.52054936 242242703.87808
157	743214 10836 239 188174 1.11 34.81 338 40.382721814999 43.599033039209 14146.628528405 592347.12405067
155	754050 11738 239 188174 1.11 34.81 338 -0.021571410569251 1.4004799026059 24.26744158311 20.180680905997
154	765788 10824 239 188174 1.11 34.81 338 19.989912943405 22.37186856457 6793.7382961099 136594.23774409
156	776612 6134 239 188174 1.11 34.81 338 7 7 2366 16562
168	782746 13779 1040 188413 1.263894761218 34.863887507323 337 0.099999269227 0.100012284096 33.699992026991 3.369998408278
167	796525 13754 1274 188096 1.297803881994 34.797810346703 336 0.099999269242 0.10001228404 33.600005745595 3.3600011521484
166	810279 9441 1040 188413 1.263894761218 34.863887507323 337 7 7 2359 16513
165	819720 9423 1274 188096 1.297803881994 34.797810346703 336 7 7 2352 16464
164	829143 501 5175 183641 2 34 33 0 0 0 0
163	829644 700 5175 183641 2 34 33 0.023297 0.02625 0.863297 0.022592750209
162	830344 501 5175 183641 2 34 33 7 7 231 1617
88	830845 10479 236 188455 1.11 34.89 339 0 20.006724426551 6474.0629958442 126955.01890556
89	841324 11517 236 188455 1.11 34.89 339 -9.5753109923052 0.014072228162597 -205.55999549533 1278.5158141487
90	852841 5814 236 188455 1.11 34.89 339 4 4 1356 5424
91	858655 10535 236 188455 1.11 34.89 339 40.376460090964 50.1289175848 14371.309190803 610636.62966503
92	869190 10522 236 188455 1.11 34.89 339 108.77205924988 1540.4374535233 276920.1112592 283260743.07397
93	879712 7170 236 188455 1.11 34.89 339 36.55 36.55 12390.45 452870.9475
94	886882 10941 236 188455 1.11 34.89 339 -1.4660392196163 2.4999999999999 84.974275713621 518.89052393835
95	897823 10866 236 188455 1.11 34.89 339 -1.4989614343279 5.7098014481376 135.43287681174 1082.019387345
96	908689 468 5172 183638 2 34 33 4 4 132 528
97	909157 667 5172 183638 2 34 33 0.023297 0.02625 0.863297 0.022592750209
98	909824 468 5172 183638 2 34 33 0 0 0 0
99	910292 9087 1256 188078 1.297803641828 34.797810049705 336 4 4 1344 5376
100	919379 9447 902 188275 1.235040521052 34.835046209091 337 4 4 1348 5392
101	928826 13762 1256 188078 1.297803641828 34.797810049705 336 0.099999266731 0.100012284034 33.600005688763 3.360001140782
102	942588 13796 902 188275 1.235040521052 34.835046209091 337 0.099999268047 0.100012284185 33.700004968925 3.3700009968148
