file 892307 1512143343                                          
version 2
run SinusoidalAccInjectionAttack-83-20171201-16:48:43-75408
attr CACCSpacing 5
attr attackAcc -10
attr attackPos 7
attr attackSpeed 150
attr attackStart 30
attr attacker 4
attr beaconInterval 0.1
attr configname SinusoidalAccInjectionAttack
attr controller 1
attr datetime 20171201-16:48:43
attr experiment SinusoidalAccInjectionAttack
attr fakeAcc "(4 == 4)"
attr fakePos "(4 == 2)"
attr fakeSpeed "(4 == 3)"
attr inifile omnetpp_83.ini
attr iterationvars "$attacker=4, $attackSpeed=150, $attackPos=7, $attackAcc=-10, $leaderSpeed=100, $controller=1, $CACCSpacing=5, $sController=\"CACC\", $attackStart=30, $0=5, $1=0, $nCars=8, $platoonSize=8, $nLanes=1, $beaconInterval=0.1, $priority=2, $packetSize=200, $ploegH=0.5, $leaderHeadway=1.2, $fakeSpeed=(4 == 3), $fakeAcc=(4 == 4), $fakePos=(4 == 2)"
attr iterationvarsf attacker=4,attackSpeed=150,attackPos=7,attackAcc=-10,leaderSpeed=100,controller=1,CACCSpacing=5,sController=CACC,attackStart=30,5,0,nCars=8,platoonSize=8,nLanes=1,beaconInterval=0.1,priority=2,packetSize=200,ploegH=0.5,leaderHeadway=1.2,fakeSpeed=(4_==_3),fakeAcc=(4_==_4),fakePos=(4_==_2)-
attr leaderHeadway 1.2
attr leaderSpeed 100
attr measurement "$attacker=4, $attackSpeed=150, $attackPos=7, $attackAcc=-10, $leaderSpeed=100, $controller=1, $CACCSpacing=5, $sController=\"CACC\", $attackStart=30, $0=5, $1=0, $nCars=8, $platoonSize=8, $nLanes=1, $beaconInterval=0.1, $priority=2, $packetSize=200, $ploegH=0.5, $leaderHeadway=1.2, $fakeSpeed=(4 == 3), $fakeAcc=(4 == 4), $fakePos=(4 == 2)"
attr nCars 8
attr nLanes 1
attr network scenario
attr packetSize 200
attr platoonSize 8
attr ploegH 0.5
attr priority 2
attr processid 75408
attr repetition 3
attr replication #3
attr resultdir results
attr runnumber 83
attr sController "\"CACC\""
attr seedset 3
param **.coreDebug false
param **.debug false
param **.headway 0.1s
param **.numberOfCars 8
param **.numberOfCarsPerPlatoon 8
param **.numberOfLanes 1
param **.numericController 1
param **.traffic.nCars 8
param **.traffic.nLanes 1
param **.traffic.platoonInsertDistance 5m
param **.traffic.platoonInsertHeadway 0s
param **.traffic.platoonInsertSpeed 100kmph
param **.traffic.platoonInsertTime "1 s"
param **.traffic.platoonLeaderHeadway 1.2s
param **.traffic.platoonSize 8
param **.traffic.platooningVType "\"vtypeauto\""
param **.traffic_type "\"PlatoonsTrafficManager\""
param *.**.nic.mac1609_4.bitrate 6Mbps
param *.**.nic.mac1609_4.txPower 100mW
param *.**.nic.mac1609_4.useServiceChannel false
param *.**.nic.phy80211p.analogueModels "xmldoc(\"config.xml\")"
param *.**.nic.phy80211p.decider "xmldoc(\"config.xml\")"
param *.**.nic.phy80211p.maxTXPower 100mW
param *.**.nic.phy80211p.sensitivity -94dBm
param *.**.nic.phy80211p.thermalNoise -95dBm
param *.**.nic.phy80211p.usePropagationDelay true
param *.**.nic.phy80211p.useThermalNoise true
param *.annotations.draw false
param *.connectionManager.alpha 2.0
param *.connectionManager.carrierFrequency "5.890e9 Hz"
param *.connectionManager.pMax 100mW
param *.connectionManager.sat -94dBm
param *.connectionManager.sendDirect true
param *.manager.autoShutdown true
param *.manager.commandLine "\"sumo --remote-port $port --seed $seed --configuration-file $configFile\""
param *.manager.configFile "\"./sumocfg/freeway.sumo.cfg\""
param *.manager.host "\"localhost\""
param *.manager.margin 25
param *.manager.moduleDisplayString "\"\""
param *.manager.moduleName "\"node\""
param *.manager.moduleType "\"Car\""
param *.manager.updateInterval 0.01s
param *.node[*].appl.attackStart 30s
param *.node[*].appl.attackerType 4
param *.node[*].appl.simulationDuration "60 s"
param *.node[*].appl_type "\"SimplePlatooningApp\""
param *.node[*].helper.nCars 8
param *.node[*].helper.nLanes 1
param *.node[*].helper.platoonSize 8
param *.node[*].helper_type "\"PositionHelper\""
param *.node[*].mobility.x 0
param *.node[*].mobility.y 0
param *.node[*].mobility.z 1.895
param *.node[*].prot.attackStart 30s
param *.node[*].prot.attackerType 4
param *.node[*].prot.attackingNode 3
param *.node[*].prot.beaconingInterval 0.1s
param *.node[*].prot.fakeAcc "(4 == 4)"
param *.node[*].prot.fakePos "(4 == 2)"
param *.node[*].prot.fakeSpeed "(4 == 3)"
param *.node[*].prot.maliciousAcc "-10 mpss"
param *.node[*].prot.maliciousSpeed 150kmph
param *.node[*].prot.packetSize 200
param *.node[*].prot.priority 2
param *.node[*].prot.shiftX "7 m"
param *.node[*].prot.useControllerAcceleration true
param *.node[*].protocol_type "\"SimplePlatooningBeaconing\""
param *.node[*].scenario.accHeadway 0.1s
param *.node[*].scenario.caccC1 0.5
param *.node[*].scenario.caccOmegaN "0.2 Hz"
param *.node[*].scenario.caccSpacing 5m
param *.node[*].scenario.caccXi 1
param *.node[*].scenario.controller "\"CACC\""
param *.node[*].scenario.engineTau "0.5 s"
param *.node[*].scenario.leaderHeadway 1.2s
param *.node[*].scenario.leaderSpeed 100kmph
param *.node[*].scenario.ploegH 0.5s
param *.node[*].scenario.ploegKd 0.7
param *.node[*].scenario.ploegKp 0.2
param *.node[*].scenario.useRealisticEngine false
param *.node[*].scenario_type "\"SinusoidalScenario\""
param *.node[*].unicast.packetLossRate 0
param *.obstacles.debug false
param *.playgroundSizeX 65000m
param *.playgroundSizeY 25000m
param *.playgroundSizeZ 50m
param *.world.use2D false
param *.world.useTorus false

vector 0  scenario.node[0].appl  distance  ETV
vector 1  scenario.node[0].appl  relativeSpeed  ETV
vector 2  scenario.node[0].appl  nodeId  ETV
vector 6  scenario.node[0].appl  acceleration  ETV
vector 7  scenario.node[0].appl  controllerAcceleration  ETV
vector 3  scenario.node[0].appl  speed  ETV
vector 4  scenario.node[0].appl  posx  ETV
vector 5  scenario.node[0].appl  posy  ETV
vector 22  scenario.node[1].appl  distance  ETV
vector 23  scenario.node[1].appl  relativeSpeed  ETV
vector 24  scenario.node[1].appl  nodeId  ETV
vector 28  scenario.node[1].appl  acceleration  ETV
vector 29  scenario.node[1].appl  controllerAcceleration  ETV
vector 25  scenario.node[1].appl  speed  ETV
vector 26  scenario.node[1].appl  posx  ETV
vector 27  scenario.node[1].appl  posy  ETV
vector 44  scenario.node[2].appl  distance  ETV
vector 45  scenario.node[2].appl  relativeSpeed  ETV
vector 46  scenario.node[2].appl  nodeId  ETV
vector 50  scenario.node[2].appl  acceleration  ETV
vector 51  scenario.node[2].appl  controllerAcceleration  ETV
vector 47  scenario.node[2].appl  speed  ETV
vector 48  scenario.node[2].appl  posx  ETV
vector 49  scenario.node[2].appl  posy  ETV
vector 66  scenario.node[3].appl  distance  ETV
vector 67  scenario.node[3].appl  relativeSpeed  ETV
vector 68  scenario.node[3].appl  nodeId  ETV
vector 72  scenario.node[3].appl  acceleration  ETV
vector 73  scenario.node[3].appl  controllerAcceleration  ETV
vector 69  scenario.node[3].appl  speed  ETV
vector 70  scenario.node[3].appl  posx  ETV
vector 71  scenario.node[3].appl  posy  ETV
vector 88  scenario.node[4].appl  distance  ETV
vector 89  scenario.node[4].appl  relativeSpeed  ETV
vector 90  scenario.node[4].appl  nodeId  ETV
vector 94  scenario.node[4].appl  acceleration  ETV
vector 95  scenario.node[4].appl  controllerAcceleration  ETV
vector 91  scenario.node[4].appl  speed  ETV
vector 92  scenario.node[4].appl  posx  ETV
vector 93  scenario.node[4].appl  posy  ETV
vector 110  scenario.node[5].appl  distance  ETV
vector 111  scenario.node[5].appl  relativeSpeed  ETV
vector 112  scenario.node[5].appl  nodeId  ETV
vector 116  scenario.node[5].appl  acceleration  ETV
vector 117  scenario.node[5].appl  controllerAcceleration  ETV
vector 113  scenario.node[5].appl  speed  ETV
vector 114  scenario.node[5].appl  posx  ETV
vector 115  scenario.node[5].appl  posy  ETV
vector 132  scenario.node[6].appl  distance  ETV
vector 133  scenario.node[6].appl  relativeSpeed  ETV
vector 134  scenario.node[6].appl  nodeId  ETV
vector 138  scenario.node[6].appl  acceleration  ETV
vector 139  scenario.node[6].appl  controllerAcceleration  ETV
vector 135  scenario.node[6].appl  speed  ETV
vector 136  scenario.node[6].appl  posx  ETV
vector 137  scenario.node[6].appl  posy  ETV
vector 154  scenario.node[7].appl  distance  ETV
vector 155  scenario.node[7].appl  relativeSpeed  ETV
vector 156  scenario.node[7].appl  nodeId  ETV
vector 160  scenario.node[7].appl  acceleration  ETV
vector 161  scenario.node[7].appl  controllerAcceleration  ETV
vector 157  scenario.node[7].appl  speed  ETV
vector 158  scenario.node[7].appl  posx  ETV
vector 159  scenario.node[7].appl  posy  ETV
vector 35  scenario.node[1].prot  leaderDelay  ETV
vector 33  scenario.node[1].prot  leaderDelayId  ETV
vector 36  scenario.node[1].prot  frontDelay  ETV
vector 34  scenario.node[1].prot  frontDelayId  ETV
vector 57  scenario.node[2].prot  leaderDelay  ETV
vector 55  scenario.node[2].prot  leaderDelayId  ETV
vector 79  scenario.node[3].prot  leaderDelay  ETV
vector 77  scenario.node[3].prot  leaderDelayId  ETV
vector 101  scenario.node[4].prot  leaderDelay  ETV
vector 99  scenario.node[4].prot  leaderDelayId  ETV
vector 123  scenario.node[5].prot  leaderDelay  ETV
vector 121  scenario.node[5].prot  leaderDelayId  ETV
vector 145  scenario.node[6].prot  leaderDelay  ETV
vector 143  scenario.node[6].prot  leaderDelayId  ETV
vector 167  scenario.node[7].prot  leaderDelay  ETV
vector 165  scenario.node[7].prot  leaderDelayId  ETV
vector 168  scenario.node[7].prot  frontDelay  ETV
vector 166  scenario.node[7].prot  frontDelayId  ETV
vector 58  scenario.node[2].prot  frontDelay  ETV
vector 56  scenario.node[2].prot  frontDelayId  ETV
vector 124  scenario.node[5].prot  frontDelay  ETV
vector 122  scenario.node[5].prot  frontDelayId  ETV
vector 80  scenario.node[3].prot  frontDelay  ETV
vector 78  scenario.node[3].prot  frontDelayId  ETV
vector 146  scenario.node[6].prot  frontDelay  ETV
vector 144  scenario.node[6].prot  frontDelayId  ETV
vector 102  scenario.node[4].prot  frontDelay  ETV
vector 100  scenario.node[4].prot  frontDelayId  ETV
vector 8  scenario.node[0].prot  nodeId  ETV
vector 9  scenario.node[0].prot  busyTime  ETV
vector 10  scenario.node[0].prot  collisions  ETV
vector 30  scenario.node[1].prot  nodeId  ETV
vector 31  scenario.node[1].prot  busyTime  ETV
vector 32  scenario.node[1].prot  collisions  ETV
vector 52  scenario.node[2].prot  nodeId  ETV
vector 53  scenario.node[2].prot  busyTime  ETV
vector 54  scenario.node[2].prot  collisions  ETV
vector 74  scenario.node[3].prot  nodeId  ETV
vector 75  scenario.node[3].prot  busyTime  ETV
vector 76  scenario.node[3].prot  collisions  ETV
vector 96  scenario.node[4].prot  nodeId  ETV
vector 97  scenario.node[4].prot  busyTime  ETV
vector 98  scenario.node[4].prot  collisions  ETV
vector 118  scenario.node[5].prot  nodeId  ETV
vector 119  scenario.node[5].prot  busyTime  ETV
vector 120  scenario.node[5].prot  collisions  ETV
vector 140  scenario.node[6].prot  nodeId  ETV
vector 141  scenario.node[6].prot  busyTime  ETV
vector 142  scenario.node[6].prot  collisions  ETV
vector 162  scenario.node[7].prot  nodeId  ETV
vector 163  scenario.node[7].prot  busyTime  ETV
vector 164  scenario.node[7].prot  collisions  ETV
7	11079 7500 232 174783 1.11 32.41 314 -1.5 1.5 15.013991466912 492.20208527972
6	18579 9845 232 174783 1.11 32.41 314 -1.4722746794938 1.451340770512 12.498138231006 335.419546819
5	28424 6306 232 174783 1.11 32.41 314 36.55 36.55 11476.7 419473.385
4	34730 9412 232 174783 1.11 32.41 314 105.1237327573 978.24730847853 170487.88919431 112648212.84563
3	44142 9412 232 174783 1.11 32.41 314 26.488037261118 29.742492528104 8759.4469612948 244586.62327038
1	53554 5050 232 174783 1.11 32.41 314 0 0 0 0
0	58604 5364 232 174783 1.11 32.41 314 -1 -1 -314 314
2	63968 5050 232 174783 1.11 32.41 314 0 0 0 0
10	69018 438 5056 172366 2 32 31 0 0 0 0
9	69456 801 5056 172366 2 32 31 0.022754155264 0.026262199507 0.810255487798 0.021189696856467
8	70257 407 5056 172366 2 32 31 0 0 0 0
29	70664 10091 233 174784 1.11 32.41 314 -1.5233934266307 1.5241492081013 15.645210223935 499.15042517597
28	80755 10138 233 174784 1.11 32.41 314 -1.4872877099247 1.4632119897342 12.162380894985 338.94601727125
27	90893 6620 233 174784 1.11 32.41 314 36.55 36.55 11476.7 419473.385
26	97513 9722 233 174784 1.11 32.41 314 96.123732757568 969.15940162054 167659.40658299 109603419.15325
25	107235 9718 233 174784 1.11 32.41 314 26.480495436544 29.7479049181 8758.554710862 244538.89632494
23	116953 10614 233 174784 1.11 32.41 314 -0.085370607543855 0.085492920015213 0.76726905050901 1.2153876683727
22	127567 9733 233 174784 1.11 32.41 314 4.9094713916734 5.1291544591456 1572.4647663109 7875.775019637
24	137300 5364 233 174784 1.11 32.41 314 1 1 314 314
36	142664 12434 836 174831 1.269557810561 32.469555220404 313 0.09999877886 0.100011807684 31.299996190383 3.1299992425225
35	155098 12434 836 174831 1.269557810561 32.469555220404 313 0.09999877886 0.100011807684 31.299996190383 3.1299992425225
34	167532 8440 836 174831 1.269557810561 32.469555220404 313 1 1 313 313
33	175972 8440 836 174831 1.269557810561 32.469555220404 313 1 1 313 313
32	184412 438 5057 172367 2 32 31 0 0 0 0
31	184850 833 5057 172367 2 32 31 0.022754185285 0.026262199235 0.810255518013 0.02118969823285
30	185683 438 5057 172367 2 32 31 1 1 31 31
51	186121 10107 234 174785 1.11 32.41 314 -1.5293286426574 1.5293868312278 15.677575951972 500.70380094926
50	196228 10147 234 174785 1.11 32.41 314 -1.4784118018742 1.4535038994509 12.004813981909 335.68492146881
49	206375 6620 234 174785 1.11 32.41 314 36.55 36.55 11476.7 419473.385
48	212995 9733 234 174785 1.11 32.41 314 87.123736572266 960.14456905264 164832.19445751 106610208.30915
47	222728 9734 234 174785 1.11 32.41 314 26.486433744786 29.741726885622 8758.4006384925 244527.92250867
45	232462 10837 234 174785 1.11 32.41 314 -0.011889281771836 0.011086342038105 0.032448560532174 0.011120101949065
44	243299 9738 234 174785 1.11 32.41 314 4.9825737970804 5.0363330005423 1571.2090440329 7862.1506647041
46	253037 5364 234 174785 1.11 32.41 314 2 2 628 1256
58	258401 12408 1046 174478 1.299189200831 32.399187735739 312 0.099998778849 0.100011826173 31.199997315448 3.1199994675348
57	270809 12440 842 174837 1.269557840582 32.469555250477 313 0.099998778859 0.10001180769 31.299996190435 3.1299992425329
56	283249 8420 1046 174478 1.299189200831 32.399187735739 312 2 2 624 1248
55	291669 8441 842 174837 1.269557840582 32.469555250477 313 2 2 626 1252
54	300110 438 5058 172368 2 32 31 0 0 0 0
53	300548 833 5058 172368 2 32 31 0.022754215306 0.026262199165 0.810255548053 0.021189699600054
52	301381 438 5058 172368 2 32 31 2 2 62 124
73	301819 10077 235 174786 1.11 32.41 314 -1.4888807626142 1.4893729040721 15.503697453353 467.3079924623
72	311896 10136 235 174786 1.11 32.41 314 -1.4638941744185 1.4373649686267 11.661514307172 328.5870825053
71	322032 6620 235 174786 1.11 32.41 314 36.55 36.55 11476.7 419473.385
70	328652 9734 235 174786 1.11 32.41 314 78.123736572266 951.11722116569 162005.0252475 103668535.6409
69	338386 9733 235 174786 1.11 32.41 314 26.50134495605 29.728229054346 8758.1147782816 244507.23583725
67	348119 10636 235 174786 1.11 32.41 314 -0.037725854740227 0.033958277041716 0.16581207106712 0.1351156561859
66	358755 9693 235 174786 1.11 32.41 314 4.9599643548233 5.0696736727892 1571.1634928054 7861.8634483946
68	368448 5364 235 174786 1.11 32.41 314 3 3 942 2826
80	373812 12418 1180 174619 1.300210350935 32.400208948269 312 0.099998778852 0.100011837537 31.199997377874 3.1199994800202
79	386230 12447 848 174843 1.269557870602 32.469555280594 313 0.099998778857 0.100011807701 31.299996190532 3.1299992425523
78	398677 8425 1180 174619 1.300210350935 32.400208948269 312 3 3 936 2808
77	407102 8455 848 174843 1.269557870602 32.469555280594 313 3 3 939 2817
76	415557 438 5059 172369 2 32 31 0 0 0 0
75	415995 831 5059 172369 2 32 31 0.022753185285 0.026262199305 0.810254518002 0.021189652724904
74	416826 438 5059 172369 2 32 31 3 3 93 279
95	417264 10096 236 174787 1.11 32.41 314 -4.3357438069247 1.4833558258224 -78.577148475244 610.81508292045
94	427360 10147 236 174787 1.11 32.41 314 -3.1951928333729 1.427517153359 -72.141430259304 451.49540358977
93	437507 6620 236 174787 1.11 32.41 314 36.55 36.55 11476.7 419473.385
92	444127 9735 236 174787 1.11 32.41 314 69.123736572266 932.63421890773 159103.34807524 100639669.05806
91	453862 9714 236 174787 1.11 32.41 314 20.632442141603 29.714956172217 8660.3681195421 239598.99247956
89	463576 10757 236 174787 1.11 32.41 314 -0.012164313716085 8.2644547400337 97.630043596429 568.05311608759
88	474333 9686 236 174787 1.11 32.41 314 4.98505643639 14.317532993832 1643.7222390851 9011.592725542
90	484019 5364 236 174787 1.11 32.41 314 4 4 1256 5024
102	489383 12738 1312 174757 1.306028501039 32.406053160968 312 0.099907778976 0.100089782295 31.199958440469 3.1199922190699
101	502121 12759 854 174849 1.269557900623 32.469555343644 313 0.099998778855 0.100011809308 31.299996223561 3.1299992491581
100	514880 8748 1312 174757 1.306028501039 32.406053160968 312 4 4 1248 4992
99	523628 8452 854 174849 1.269557900623 32.469555343644 313 4 4 1252 5008
98	532080 438 5060 172370 2 32 31 0 0 0 0
97	532518 835 5060 172370 2 32 31 0.022754155264 0.026262199361 0.810255467145 0.021189695772227
96	533353 438 5060 172370 2 32 31 4 4 124 496
139	533791 10420 238 174789 1.11 32.41 314 -1.4833385430233 1.4846826986197 -16.661877680036 424.68500900639
138	544211 10492 238 174789 1.11 32.41 314 -1.4512379873675 1.4280810607264 -14.60645772435 295.84949161057
137	554703 6934 238 174789 1.11 32.41 314 36.55 36.55 11476.7 419473.385
136	561637 10043 238 174789 1.11 32.41 314 51.123734664917 921.60914587231 153504.98541702 95112898.084158
135	571680 10041 238 174789 1.11 32.41 314 26.337469948126 29.71147884354 8732.1238988604 243088.16641053
133	581721 10896 238 174789 1.11 32.41 314 -2.0381059177453 0.046328186689518 -22.806695763718 33.572400171889
132	592617 10044 238 174789 1.11 32.41 314 2.7971628286745 5.0375578761627 1554.9742532092 7722.5169281568
134	602661 5678 238 174789 1.11 32.41 314 6 6 1884 11304
146	608339 12715 1249 174688 1.305615440997 32.405614046458 312 0.099998778836 0.100011854036 31.199997386001 3.1199994816461
145	621054 12765 866 174861 1.269557960665 32.469555379461 313 0.099998778853 0.100011808102 31.299996199336 3.1299992443131
144	633819 8733 1249 174688 1.305615440997 32.405614046458 312 6 6 1872 11232
143	642552 8766 866 174861 1.269557960665 32.469555379461 313 6 6 1878 11268
142	651318 469 5062 172372 2 32 31 0 0 0 0
141	651787 865 5062 172372 2 32 31 0.022754095223 0.026262199288 0.810255422789 0.021189693863292
140	652652 469 5062 172372 2 32 31 6 6 186 1116
161	653121 10426 239 174790 1.11 32.41 314 -1.5021746592368 1.5049027577872 -3.567727571034 449.54892735381
160	663547 10488 239 174790 1.11 32.41 314 -1.4497273646167 1.4254867382512 -2.5637832240797 299.10241300661
159	674035 6934 239 174790 1.11 32.41 314 36.55 36.55 11476.7 419473.385
158	680969 10032 239 174790 1.11 32.41 314 42.123735618591 913.88415633952 150687.5195745 92391711.659611
157	691001 10047 239 174790 1.11 32.41 314 26.511139769106 29.708149860435 8745.2926562721 243793.02838299
155	701048 11139 239 174790 1.11 32.41 314 -1.1796145202401 0.0045407892561187 -13.022692834417 10.57940614886
154	712187 10039 239 174790 1.11 32.41 314 3.7486778484606 5.0189441838257 1561.7292176657 7774.7205507272
156	722226 5678 239 174790 1.11 32.41 314 7 7 2198 15386
168	727904 12719 980 174418 1.292107050727 32.392105573081 312 0.099998778853 0.10001184744 31.199997302894 3.1199994650247
167	740623 12765 872 174867 1.269557990685 32.469555405027 313 0.099998778853 0.100011807892 31.299996194882 3.1299992434223
166	753388 8731 980 174418 1.292107050727 32.392105573081 312 7 7 2184 15288
165	762119 8760 872 174867 1.269557990685 32.469555405027 313 7 7 2191 15337
164	770879 469 5063 172373 2 32 31 0 0 0 0
163	771348 863 5063 172373 2 32 31 0.022754065202 0.026262199331 0.810255395506 0.021189692640831
162	772211 469 5063 172373 2 32 31 7 7 217 1519
110	772680 10037 237 174939 1.11 32.49 315 0 5.0187625636247 1532.8235205995 7592.5891030438
111	782717 10984 237 174939 1.11 32.49 315 -3.6818618443805 0.019160268250925 -51.555508068519 143.03798222651
112	793701 5697 237 174939 1.11 32.49 315 5 5 1575 7875
113	799398 10080 237 174939 1.11 32.49 315 24.191901987471 29.705511400843 8733.1550820563 242482.93631037
114	809478 10076 237 174939 1.11 32.49 315 60.123736572266 930.30313050536 157245.79958636 98737835.446744
115	819554 6957 237 174939 1.11 32.49 315 36.55 36.55 11513.25 420809.2875
116	826511 10523 237 174939 1.11 32.49 315 -1.4472993340732 1.422156913009 -36.668724553405 316.14564349598
117	837034 10481 237 174939 1.11 32.49 315 -2.0332535454861 1.5049213357984 -44.807403920828 472.32807389166
118	847515 469 5061 172371 2 32 31 5 5 155 775
119	847984 864 5061 172371 2 32 31 0.022753125244 0.026262199367 0.810254447993 0.021189649469364
120	848848 469 5061 172371 2 32 31 0 0 0 0
121	849317 8774 860 174855 1.269557930644 32.469555357271 313 5 5 1565 7825
122	858091 8731 1112 174544 1.299602290893 32.399600841432 312 5 5 1560 7800
123	866822 12766 860 174855 1.269557930644 32.469555357271 313 0.099998778852 0.100011808486 31.299996207167 3.1299992458793
124	879588 12719 1112 174544 1.299602290893 32.399600841432 312 0.099998778842 0.100011858199 31.199997331079 3.119999470662
