file 1020783 1512142927                                         
version 2
run SinusoidalAccInjectionAttack-7-20171201-16:41:48-62041
attr CACCSpacing 20
attr attackAcc -30
attr attackPos 7
attr attackSpeed 150
attr attackStart 30
attr attacker 4
attr beaconInterval 0.1
attr configname SinusoidalAccInjectionAttack
attr controller 1
attr datetime 20171201-16:41:48
attr experiment SinusoidalAccInjectionAttack
attr fakeAcc "(4 == 4)"
attr fakePos "(4 == 2)"
attr fakeSpeed "(4 == 3)"
attr inifile omnetpp_7.ini
attr iterationvars "$attacker=4, $attackSpeed=150, $attackPos=7, $attackAcc=-30, $leaderSpeed=50, $controller=1, $CACCSpacing=20, $sController=\"CACC\", $attackStart=30, $0=20, $1=0, $nCars=8, $platoonSize=8, $nLanes=1, $beaconInterval=0.1, $priority=2, $packetSize=200, $ploegH=0.5, $leaderHeadway=1.2, $fakeSpeed=(4 == 3), $fakeAcc=(4 == 4), $fakePos=(4 == 2)"
attr iterationvarsf attacker=4,attackSpeed=150,attackPos=7,attackAcc=-30,leaderSpeed=50,controller=1,CACCSpacing=20,sController=CACC,attackStart=30,20,0,nCars=8,platoonSize=8,nLanes=1,beaconInterval=0.1,priority=2,packetSize=200,ploegH=0.5,leaderHeadway=1.2,fakeSpeed=(4_==_3),fakeAcc=(4_==_4),fakePos=(4_==_2)-
attr leaderHeadway 1.2
attr leaderSpeed 50
attr measurement "$attacker=4, $attackSpeed=150, $attackPos=7, $attackAcc=-30, $leaderSpeed=50, $controller=1, $CACCSpacing=20, $sController=\"CACC\", $attackStart=30, $0=20, $1=0, $nCars=8, $platoonSize=8, $nLanes=1, $beaconInterval=0.1, $priority=2, $packetSize=200, $ploegH=0.5, $leaderHeadway=1.2, $fakeSpeed=(4 == 3), $fakeAcc=(4 == 4), $fakePos=(4 == 2)"
attr nCars 8
attr nLanes 1
attr network scenario
attr packetSize 200
attr platoonSize 8
attr ploegH 0.5
attr priority 2
attr processid 62041
attr repetition 2
attr replication #2
attr resultdir results
attr runnumber 7
attr sController "\"CACC\""
attr seedset 2
param **.coreDebug false
param **.debug false
param **.headway 0.1s
param **.numberOfCars 8
param **.numberOfCarsPerPlatoon 8
param **.numberOfLanes 1
param **.numericController 1
param **.traffic.nCars 8
param **.traffic.nLanes 1
param **.traffic.platoonInsertDistance 20m
param **.traffic.platoonInsertHeadway 0s
param **.traffic.platoonInsertSpeed 50kmph
param **.traffic.platoonInsertTime "1 s"
param **.traffic.platoonLeaderHeadway 1.2s
param **.traffic.platoonSize 8
param **.traffic.platooningVType "\"vtypeauto\""
param **.traffic_type "\"PlatoonsTrafficManager\""
param *.**.nic.mac1609_4.bitrate 6Mbps
param *.**.nic.mac1609_4.txPower 100mW
param *.**.nic.mac1609_4.useServiceChannel false
param *.**.nic.phy80211p.analogueModels "xmldoc(\"config.xml\")"
param *.**.nic.phy80211p.decider "xmldoc(\"config.xml\")"
param *.**.nic.phy80211p.maxTXPower 100mW
param *.**.nic.phy80211p.sensitivity -94dBm
param *.**.nic.phy80211p.thermalNoise -95dBm
param *.**.nic.phy80211p.usePropagationDelay true
param *.**.nic.phy80211p.useThermalNoise true
param *.annotations.draw false
param *.connectionManager.alpha 2.0
param *.connectionManager.carrierFrequency "5.890e9 Hz"
param *.connectionManager.pMax 100mW
param *.connectionManager.sat -94dBm
param *.connectionManager.sendDirect true
param *.manager.autoShutdown true
param *.manager.commandLine "\"sumo --remote-port $port --seed $seed --configuration-file $configFile\""
param *.manager.configFile "\"./sumocfg/freeway.sumo.cfg\""
param *.manager.host "\"localhost\""
param *.manager.margin 25
param *.manager.moduleDisplayString "\"\""
param *.manager.moduleName "\"node\""
param *.manager.moduleType "\"Car\""
param *.manager.updateInterval 0.01s
param *.node[*].appl.attackStart 30s
param *.node[*].appl.attackerType 4
param *.node[*].appl.simulationDuration "60 s"
param *.node[*].appl_type "\"SimplePlatooningApp\""
param *.node[*].helper.nCars 8
param *.node[*].helper.nLanes 1
param *.node[*].helper.platoonSize 8
param *.node[*].helper_type "\"PositionHelper\""
param *.node[*].mobility.x 0
param *.node[*].mobility.y 0
param *.node[*].mobility.z 1.895
param *.node[*].prot.attackStart 30s
param *.node[*].prot.attackerType 4
param *.node[*].prot.attackingNode 3
param *.node[*].prot.beaconingInterval 0.1s
param *.node[*].prot.fakeAcc "(4 == 4)"
param *.node[*].prot.fakePos "(4 == 2)"
param *.node[*].prot.fakeSpeed "(4 == 3)"
param *.node[*].prot.maliciousAcc "-30 mpss"
param *.node[*].prot.maliciousSpeed 150kmph
param *.node[*].prot.packetSize 200
param *.node[*].prot.priority 2
param *.node[*].prot.shiftX "7 m"
param *.node[*].prot.useControllerAcceleration true
param *.node[*].protocol_type "\"SimplePlatooningBeaconing\""
param *.node[*].scenario.accHeadway 0.1s
param *.node[*].scenario.caccC1 0.5
param *.node[*].scenario.caccOmegaN "0.2 Hz"
param *.node[*].scenario.caccSpacing 20m
param *.node[*].scenario.caccXi 1
param *.node[*].scenario.controller "\"CACC\""
param *.node[*].scenario.engineTau "0.5 s"
param *.node[*].scenario.leaderHeadway 1.2s
param *.node[*].scenario.leaderSpeed 50kmph
param *.node[*].scenario.ploegH 0.5s
param *.node[*].scenario.ploegKd 0.7
param *.node[*].scenario.ploegKp 0.2
param *.node[*].scenario.useRealisticEngine false
param *.node[*].scenario_type "\"SinusoidalScenario\""
param *.node[*].unicast.packetLossRate 0
param *.obstacles.debug false
param *.playgroundSizeX 65000m
param *.playgroundSizeY 25000m
param *.playgroundSizeZ 50m
param *.world.use2D false
param *.world.useTorus false

vector 0  scenario.node[0].appl  distance  ETV
vector 1  scenario.node[0].appl  relativeSpeed  ETV
vector 2  scenario.node[0].appl  nodeId  ETV
vector 6  scenario.node[0].appl  acceleration  ETV
vector 7  scenario.node[0].appl  controllerAcceleration  ETV
vector 3  scenario.node[0].appl  speed  ETV
vector 4  scenario.node[0].appl  posx  ETV
vector 5  scenario.node[0].appl  posy  ETV
vector 22  scenario.node[1].appl  distance  ETV
vector 23  scenario.node[1].appl  relativeSpeed  ETV
vector 24  scenario.node[1].appl  nodeId  ETV
vector 28  scenario.node[1].appl  acceleration  ETV
vector 29  scenario.node[1].appl  controllerAcceleration  ETV
vector 25  scenario.node[1].appl  speed  ETV
vector 26  scenario.node[1].appl  posx  ETV
vector 27  scenario.node[1].appl  posy  ETV
vector 44  scenario.node[2].appl  distance  ETV
vector 45  scenario.node[2].appl  relativeSpeed  ETV
vector 46  scenario.node[2].appl  nodeId  ETV
vector 50  scenario.node[2].appl  acceleration  ETV
vector 51  scenario.node[2].appl  controllerAcceleration  ETV
vector 47  scenario.node[2].appl  speed  ETV
vector 48  scenario.node[2].appl  posx  ETV
vector 49  scenario.node[2].appl  posy  ETV
vector 66  scenario.node[3].appl  distance  ETV
vector 67  scenario.node[3].appl  relativeSpeed  ETV
vector 68  scenario.node[3].appl  nodeId  ETV
vector 72  scenario.node[3].appl  acceleration  ETV
vector 73  scenario.node[3].appl  controllerAcceleration  ETV
vector 69  scenario.node[3].appl  speed  ETV
vector 70  scenario.node[3].appl  posx  ETV
vector 71  scenario.node[3].appl  posy  ETV
vector 88  scenario.node[4].appl  distance  ETV
vector 89  scenario.node[4].appl  relativeSpeed  ETV
vector 90  scenario.node[4].appl  nodeId  ETV
vector 94  scenario.node[4].appl  acceleration  ETV
vector 95  scenario.node[4].appl  controllerAcceleration  ETV
vector 91  scenario.node[4].appl  speed  ETV
vector 92  scenario.node[4].appl  posx  ETV
vector 93  scenario.node[4].appl  posy  ETV
vector 110  scenario.node[5].appl  distance  ETV
vector 111  scenario.node[5].appl  relativeSpeed  ETV
vector 112  scenario.node[5].appl  nodeId  ETV
vector 116  scenario.node[5].appl  acceleration  ETV
vector 117  scenario.node[5].appl  controllerAcceleration  ETV
vector 113  scenario.node[5].appl  speed  ETV
vector 114  scenario.node[5].appl  posx  ETV
vector 115  scenario.node[5].appl  posy  ETV
vector 132  scenario.node[6].appl  distance  ETV
vector 133  scenario.node[6].appl  relativeSpeed  ETV
vector 134  scenario.node[6].appl  nodeId  ETV
vector 138  scenario.node[6].appl  acceleration  ETV
vector 139  scenario.node[6].appl  controllerAcceleration  ETV
vector 135  scenario.node[6].appl  speed  ETV
vector 136  scenario.node[6].appl  posx  ETV
vector 137  scenario.node[6].appl  posy  ETV
vector 154  scenario.node[7].appl  distance  ETV
vector 155  scenario.node[7].appl  relativeSpeed  ETV
vector 156  scenario.node[7].appl  nodeId  ETV
vector 160  scenario.node[7].appl  acceleration  ETV
vector 161  scenario.node[7].appl  controllerAcceleration  ETV
vector 157  scenario.node[7].appl  speed  ETV
vector 158  scenario.node[7].appl  posx  ETV
vector 159  scenario.node[7].appl  posy  ETV
vector 168  scenario.node[7].prot  frontDelay  ETV
vector 166  scenario.node[7].prot  frontDelayId  ETV
vector 146  scenario.node[6].prot  frontDelay  ETV
vector 144  scenario.node[6].prot  frontDelayId  ETV
vector 35  scenario.node[1].prot  leaderDelay  ETV
vector 33  scenario.node[1].prot  leaderDelayId  ETV
vector 36  scenario.node[1].prot  frontDelay  ETV
vector 34  scenario.node[1].prot  frontDelayId  ETV
vector 57  scenario.node[2].prot  leaderDelay  ETV
vector 55  scenario.node[2].prot  leaderDelayId  ETV
vector 79  scenario.node[3].prot  leaderDelay  ETV
vector 77  scenario.node[3].prot  leaderDelayId  ETV
vector 101  scenario.node[4].prot  leaderDelay  ETV
vector 99  scenario.node[4].prot  leaderDelayId  ETV
vector 123  scenario.node[5].prot  leaderDelay  ETV
vector 121  scenario.node[5].prot  leaderDelayId  ETV
vector 145  scenario.node[6].prot  leaderDelay  ETV
vector 143  scenario.node[6].prot  leaderDelayId  ETV
vector 167  scenario.node[7].prot  leaderDelay  ETV
vector 165  scenario.node[7].prot  leaderDelayId  ETV
vector 102  scenario.node[4].prot  frontDelay  ETV
vector 100  scenario.node[4].prot  frontDelayId  ETV
vector 80  scenario.node[3].prot  frontDelay  ETV
vector 78  scenario.node[3].prot  frontDelayId  ETV
vector 124  scenario.node[5].prot  frontDelay  ETV
vector 122  scenario.node[5].prot  frontDelayId  ETV
vector 58  scenario.node[2].prot  frontDelay  ETV
vector 56  scenario.node[2].prot  frontDelayId  ETV
vector 8  scenario.node[0].prot  nodeId  ETV
vector 9  scenario.node[0].prot  busyTime  ETV
vector 10  scenario.node[0].prot  collisions  ETV
vector 30  scenario.node[1].prot  nodeId  ETV
vector 31  scenario.node[1].prot  busyTime  ETV
vector 32  scenario.node[1].prot  collisions  ETV
vector 52  scenario.node[2].prot  nodeId  ETV
vector 53  scenario.node[2].prot  busyTime  ETV
vector 54  scenario.node[2].prot  collisions  ETV
vector 74  scenario.node[3].prot  nodeId  ETV
vector 75  scenario.node[3].prot  busyTime  ETV
vector 76  scenario.node[3].prot  collisions  ETV
vector 96  scenario.node[4].prot  nodeId  ETV
vector 97  scenario.node[4].prot  busyTime  ETV
vector 98  scenario.node[4].prot  collisions  ETV
vector 118  scenario.node[5].prot  nodeId  ETV
vector 119  scenario.node[5].prot  busyTime  ETV
vector 120  scenario.node[5].prot  collisions  ETV
vector 140  scenario.node[6].prot  nodeId  ETV
vector 141  scenario.node[6].prot  busyTime  ETV
vector 142  scenario.node[6].prot  collisions  ETV
vector 162  scenario.node[7].prot  nodeId  ETV
vector 163  scenario.node[7].prot  busyTime  ETV
vector 164  scenario.node[7].prot  collisions  ETV
7	11079 8556 232 201002 1.11 37.11 361 -1.5 1.5 16.349533804788 582.34202068777
6	19635 11326 232 201002 1.11 37.11 361 -1.472274679513 1.4513430531444 9.8732525179658 394.8071180336
5	30961 7293 232 201002 1.11 37.11 361 36.55 36.55 13194.55 482260.8025
4	38254 10856 232 201002 1.11 37.11 361 204.28218421923 707.62872249412 165161.32353587 83231093.324606
3	49110 10861 232 201002 1.11 37.11 361 12.59908680102 15.853603639796 5047.6907587037 70845.442193834
1	59971 5849 232 201002 1.11 37.11 361 0 0 0 0
0	65820 6210 232 201002 1.11 37.11 361 -1 -1 -361 361
2	72030 5849 232 201002 1.11 37.11 361 0 0 0 0
10	77879 513 5168 200368 2 37 36 0 0 0 0
9	78392 694 5168 200368 2 37 36 0.023297 0.02625 0.942047 0.024659937709
8	79086 477 5168 200368 2 37 36 0 0 0 0
29	79563 10484 233 201003 1.11 37.11 361 -1.5201885302002 1.5215379200046 15.084385334882 584.14809307923
28	90047 11683 233 201003 1.11 37.11 361 -1.4845166970579 1.4492363478547 8.9548125325836 394.29588817051
27	101730 7654 233 201003 1.11 37.11 361 36.55 36.55 13194.55 482260.8025
26	109384 11220 233 201003 1.11 37.11 361 180.28218421936 683.43280706834 156472.50548994 75486102.667101
25	120604 11217 233 201003 1.11 37.11 361 12.593700960239 15.849344566939 5045.6995333543 70790.20674527
23	131821 12239 233 201003 1.11 37.11 361 -0.083288757167692 0.092346609178076 1.892492824279 1.415985708612
22	144060 11222 233 201003 1.11 37.11 361 19.942679243784 20.212890322068 7244.7782214141 145394.49668926
24	155282 6210 233 201003 1.11 37.11 361 1 1 361 361
36	161492 14353 1034 200691 1.262218481716 37.062221727538 359 0.099999759937 0.100012761733 35.90000300704 3.5900006022438
35	175845 14353 1034 200691 1.262218481716 37.062221727538 359 0.099999759937 0.100012761733 35.90000300704 3.5900006022438
34	190198 9720 1034 200691 1.262218481716 37.062221727538 359 1 1 359 359
33	199918 9720 1034 200691 1.262218481716 37.062221727538 359 1 1 359 359
32	209638 513 5169 200369 2 37 36 0 0 0 0
31	210151 730 5169 200369 2 37 36 0.023296 0.02625 0.942046 0.024659891116
30	210881 513 5169 200369 2 37 36 1 1 36 36
51	211394 11596 234 201004 1.11 37.11 361 -1.4917898291341 1.4990053099557 15.307792336379 564.33975420897
50	222990 11671 234 201004 1.11 37.11 361 -1.4755502010074 1.441587675785 8.6976327390596 391.04551195139
49	234661 7654 234 201004 1.11 37.11 361 36.55 36.55 13194.55 482260.8025
48	242315 11221 234 201004 1.11 37.11 361 156.28218421936 659.38414740199 147802.63523672 68177795.020079
47	253536 11222 234 201004 1.11 37.11 361 12.597121993093 15.844083349125 5045.2027479056 70774.104909282
45	264758 12371 234 201004 1.11 37.11 361 -0.017774646240298 0.0165781677547 0.4072373233315 0.034433243798319
44	277129 11213 234 201004 1.11 37.11 361 19.984493294671 20.053060385949 7225.8603175155 144634.62246052
46	288342 6210 234 201004 1.11 37.11 361 2 2 722 1444
58	294552 14372 1312 200964 1.302598202214 37.102602016713 359 0.099987434291 0.100012763807 35.900003575717 3.5900007163
57	308924 14365 1040 200697 1.262218561772 37.062221807751 359 0.099999759938 0.100012761742 35.900003007197 3.5900006022752
56	323289 9734 1312 200964 1.302598202214 37.102602016713 359 2 2 718 1436
55	333023 9729 1040 200697 1.262218561772 37.062221807751 359 2 2 718 1436
54	342752 513 5170 200370 2 37 36 0 0 0 0
53	343265 730 5170 200370 2 37 36 0.023297 0.02625 0.942047 0.024659937709
52	343995 513 5170 200370 2 37 36 2 2 72 144
73	344508 11534 235 201005 1.11 37.11 361 -1.5133685768604 1.5080594306659 15.416034643257 578.39814226232
72	356042 11702 235 201005 1.11 37.11 361 -1.4653396864322 1.4364933077832 8.4806617245942 385.78429284766
71	367744 7654 235 201005 1.11 37.11 361 36.55 36.55 13194.55 482260.8025
70	375398 11228 235 201005 1.11 37.11 361 132.28219184875 635.39733137355 139142.04996464 61295019.786484
69	386626 11224 235 201005 1.11 37.11 361 12.605808640956 15.835137867499 5045.3268267736 70774.457760018
67	397850 12474 235 201005 1.11 37.11 361 -0.015548639735037 0.011230169041433 -0.21105519538293 0.013635594157132
66	410324 11213 235 201005 1.11 37.11 361 19.96213031092 20.035282210702 7216.5877536601 144263.64940831
68	421537 6210 235 201005 1.11 37.11 361 3 3 1083 3249
80	427747 14374 1176 200827 1.287874801937 37.087878047777 359 0.099987409898 0.100012763801 35.900003007058 3.5900006025687
79	442121 14356 1046 200703 1.262218641827 37.062221887759 359 0.099999759936 0.100012761748 35.90000300715 3.5900006022658
78	456477 9734 1176 200827 1.287874801937 37.087878047777 359 3 3 1077 3231
77	466211 9721 1046 200703 1.262218641827 37.062221887759 359 3 3 1077 3231
76	475932 513 5171 200371 2 37 36 0 0 0 0
75	476445 730 5171 200371 2 37 36 0.023297 0.02625 0.942047 0.024659937709
74	477175 513 5171 200371 2 37 36 3 3 108 324
95	477688 11669 236 201006 1.11 37.11 361 -14.359445875558 1.5 -612.53559527711 5833.9678450149
94	489357 10752 236 201006 1.11 37.11 361 -9 1.4289148554431 -136.72246245704 1344.7230813731
93	500109 7654 236 201006 1.11 37.11 361 36.55 36.55 13194.55 482260.8025
92	507763 11226 236 201006 1.11 37.11 361 108.28219184875 525.83211668152 127753.60814489 51801967.514012
91	518989 10457 236 201006 1.11 37.11 361 0 15.824933497305 4184.5470320895 58378.30406062
89	529446 12236 236 201006 1.11 37.11 361 -0.013442529912858 15.160874458248 860.69498806681 11569.671030716
88	541682 11214 236 201006 1.11 37.11 361 19.979107556697 105.27170192976 9927.2262238497 408345.86517306
90	552896 6210 236 201006 1.11 37.11 361 4 4 1444 5776
102	559106 14712 1108 200777 1.276580721882 37.076584251272 359 0.099987429844 0.100012763824 35.900003290608 3.5900006592782
101	573818 14723 1052 200709 1.262218721883 37.062222250784 359 0.099999759933 0.100012761751 35.900003290119 3.5900006588596
100	588541 10081 1108 200777 1.276580721882 37.076584251272 359 4 4 1436 5744
99	598622 9729 1052 200709 1.262218721883 37.062222250784 359 4 4 1436 5744
98	608351 513 5172 200372 2 37 36 0 0 0 0
97	608864 730 5172 200372 2 37 36 0.023297 0.02625 0.942047 0.024659937709
96	609594 513 5172 200372 2 37 36 4 4 144 576
117	610107 11434 237 201007 1.11 37.11 361 -6.5426880543692 1.5066950650914 -265.32348000028 1526.3674825747
116	621541 11456 237 201007 1.11 37.11 361 -5.1736542659885 1.4321005827355 -140.35314422769 876.19386629449
115	632997 8015 237 201007 1.11 37.11 361 36.55 36.55 13194.55 482260.8025
114	641012 11583 237 201007 1.11 37.11 361 84.282188034058 510.25366425734 119557.34692417 46350908.237447
113	652595 11012 237 201007 1.11 37.11 361 0 15.826796404689 4268.7226096823 59114.765700109
111	663607 11924 237 201007 1.11 37.11 361 -5.843123847596 0.032214812774718 -82.808352968218 328.13248538242
110	675531 11577 237 201007 1.11 37.11 361 11.578849280334 20.019410409218 6753.9447322729 129448.17736949
112	687108 6571 237 201007 1.11 37.11 361 5 5 1805 9025
124	693679 14729 1244 200895 1.297504962048 37.097508463744 359 0.099987368465 0.100012763424 35.900003262914 3.5900006537409
123	708408 14710 1058 200715 1.262218801938 37.062222302749 359 0.099999759934 0.100012761746 35.900003262029 3.5900006532417
122	723118 10093 1244 200895 1.297504962048 37.097508463744 359 5 5 1795 8975
121	733211 10081 1058 200715 1.262218801938 37.062222302749 359 5 5 1795 8975
120	743292 549 5173 200373 2 37 36 0 0 0 0
119	743841 766 5173 200373 2 37 36 0.023297 0.02625 0.942047 0.024659937709
118	744607 549 5173 200373 2 37 36 5 5 180 900
139	745156 12023 238 201008 1.11 37.11 361 -4.2184285902507 1.4959038825885 -135.4687848476 850.97215695852
138	757179 12067 238 201008 1.11 37.11 361 -3.7487727331851 1.4350229181531 -129.54018530243 668.64772991176
137	769246 8015 238 201008 1.11 37.11 361 36.55 36.55 13194.55 482260.8025
136	777261 11587 238 201008 1.11 37.11 361 60.282188034058 502.27766490655 111594.49365799 41511324.695587
135	788848 11605 238 201008 1.11 37.11 361 0 15.830717199506 4429.3214466371 60638.331295829
133	800453 12694 238 201008 1.11 37.11 361 -6.1611830111081 0.010619123769589 -159.19530551247 667.83813978743
132	813147 11569 238 201008 1.11 37.11 361 3.994679197505 20.027592313754 6522.0652394368 125951.21850742
134	824716 6571 238 201008 1.11 37.11 361 6 6 2166 12996
146	831287 14723 970 200621 1.247596081439 37.047599018748 359 0.099987315592 0.100012763662 35.900002698527 3.5900005408648
145	846010 14729 1064 200721 1.262218881993 37.062222329511 359 0.099999759935 0.100012761754 35.900003208736 3.5900006425831
144	860739 10088 970 200621 1.247596081439 37.047599018748 359 6 6 2154 12924
143	870827 10092 1064 200721 1.262218881993 37.062222329511 359 6 6 2154 12924
142	880919 549 5174 200374 2 37 36 0 0 0 0
141	881468 766 5174 200374 2 37 36 0.023297 0.02625 0.942047 0.024659937709
140	882234 549 5174 200374 2 37 36 6 6 216 1296
154	882783 11613 239 201148 1.11 37.14 362 0 20.013502933043 6616.0563576341 128598.91543914
155	894396 12745 239 201148 1.11 37.14 362 -4.2139409841679 0.0086296026673338 -201.54686028122 674.8587891795
156	907141 6590 239 201148 1.11 37.14 362 7 7 2534 17738
157	913731 11627 239 201148 1.11 37.14 362 3.130900669356 15.825600952068 4633.1332309972 62764.102442864
158	925358 11625 239 201148 1.11 37.14 362 36.282188987732 498.31811714351 104036.76027494 37198779.511167
159	936983 8038 239 201148 1.11 37.14 362 36.55 36.55 13231.1 483596.705
160	945021 12135 239 201148 1.11 37.14 362 -3.2698265313064 1.4298755955254 -102.59147678826 534.19180588774
161	957156 12061 239 201148 1.11 37.14 362 -3.5954714017125 1.4866431752285 -99.179085438529 692.59098527852
162	969217 549 5175 200375 2 37 36 7 7 252 1764
163	969766 766 5175 200375 2 37 36 0.023297 0.02625 0.942047 0.024659937709
164	970532 549 5175 200375 2 37 36 0 0 0 0
165	971081 10083 1070 200727 1.262218962049 37.06222234351 359 7 7 2513 17591
166	981164 10129 832 201040 1.212137841273 37.11212855387 360 7 7 2520 17640
167	991293 14715 1070 200727 1.262218962049 37.06222234351 359 0.099999759934 0.100012761756 35.900003142679 3.5900006293716
168	1006008 14775 832 201040 1.212137841273 37.11212855387 360 0.099987518418 0.100012762793 35.999990473815 3.5999980957548
