file 868170 1512143149                                          
version 2
run SinusoidalAccInjectionAttack-44-20171201-16:45:33-42952
attr CACCSpacing 5
attr attackAcc -30
attr attackPos 7
attr attackSpeed 150
attr attackStart 30
attr attacker 4
attr beaconInterval 0.1
attr configname SinusoidalAccInjectionAttack
attr controller 1
attr datetime 20171201-16:45:33
attr experiment SinusoidalAccInjectionAttack
attr fakeAcc "(4 == 4)"
attr fakePos "(4 == 2)"
attr fakeSpeed "(4 == 3)"
attr inifile omnetpp_44.ini
attr iterationvars "$attacker=4, $attackSpeed=150, $attackPos=7, $attackAcc=-30, $leaderSpeed=150, $controller=1, $CACCSpacing=5, $sController=\"CACC\", $attackStart=30, $0=5, $1=0, $nCars=8, $platoonSize=8, $nLanes=1, $beaconInterval=0.1, $priority=2, $packetSize=200, $ploegH=0.5, $leaderHeadway=1.2, $fakeSpeed=(4 == 3), $fakeAcc=(4 == 4), $fakePos=(4 == 2)"
attr iterationvarsf attacker=4,attackSpeed=150,attackPos=7,attackAcc=-30,leaderSpeed=150,controller=1,CACCSpacing=5,sController=CACC,attackStart=30,5,0,nCars=8,platoonSize=8,nLanes=1,beaconInterval=0.1,priority=2,packetSize=200,ploegH=0.5,leaderHeadway=1.2,fakeSpeed=(4_==_3),fakeAcc=(4_==_4),fakePos=(4_==_2)-
attr leaderHeadway 1.2
attr leaderSpeed 150
attr measurement "$attacker=4, $attackSpeed=150, $attackPos=7, $attackAcc=-30, $leaderSpeed=150, $controller=1, $CACCSpacing=5, $sController=\"CACC\", $attackStart=30, $0=5, $1=0, $nCars=8, $platoonSize=8, $nLanes=1, $beaconInterval=0.1, $priority=2, $packetSize=200, $ploegH=0.5, $leaderHeadway=1.2, $fakeSpeed=(4 == 3), $fakeAcc=(4 == 4), $fakePos=(4 == 2)"
attr nCars 8
attr nLanes 1
attr network scenario
attr packetSize 200
attr platoonSize 8
attr ploegH 0.5
attr priority 2
attr processid 42952
attr repetition 4
attr replication #4
attr resultdir results
attr runnumber 44
attr sController "\"CACC\""
attr seedset 4
param **.coreDebug false
param **.debug false
param **.headway 0.1s
param **.numberOfCars 8
param **.numberOfCarsPerPlatoon 8
param **.numberOfLanes 1
param **.numericController 1
param **.traffic.nCars 8
param **.traffic.nLanes 1
param **.traffic.platoonInsertDistance 5m
param **.traffic.platoonInsertHeadway 0s
param **.traffic.platoonInsertSpeed 150kmph
param **.traffic.platoonInsertTime "1 s"
param **.traffic.platoonLeaderHeadway 1.2s
param **.traffic.platoonSize 8
param **.traffic.platooningVType "\"vtypeauto\""
param **.traffic_type "\"PlatoonsTrafficManager\""
param *.**.nic.mac1609_4.bitrate 6Mbps
param *.**.nic.mac1609_4.txPower 100mW
param *.**.nic.mac1609_4.useServiceChannel false
param *.**.nic.phy80211p.analogueModels "xmldoc(\"config.xml\")"
param *.**.nic.phy80211p.decider "xmldoc(\"config.xml\")"
param *.**.nic.phy80211p.maxTXPower 100mW
param *.**.nic.phy80211p.sensitivity -94dBm
param *.**.nic.phy80211p.thermalNoise -95dBm
param *.**.nic.phy80211p.usePropagationDelay true
param *.**.nic.phy80211p.useThermalNoise true
param *.annotations.draw false
param *.connectionManager.alpha 2.0
param *.connectionManager.carrierFrequency "5.890e9 Hz"
param *.connectionManager.pMax 100mW
param *.connectionManager.sat -94dBm
param *.connectionManager.sendDirect true
param *.manager.autoShutdown true
param *.manager.commandLine "\"sumo --remote-port $port --seed $seed --configuration-file $configFile\""
param *.manager.configFile "\"./sumocfg/freeway.sumo.cfg\""
param *.manager.host "\"localhost\""
param *.manager.margin 25
param *.manager.moduleDisplayString "\"\""
param *.manager.moduleName "\"node\""
param *.manager.moduleType "\"Car\""
param *.manager.updateInterval 0.01s
param *.node[*].appl.attackStart 30s
param *.node[*].appl.attackerType 4
param *.node[*].appl.simulationDuration "60 s"
param *.node[*].appl_type "\"SimplePlatooningApp\""
param *.node[*].helper.nCars 8
param *.node[*].helper.nLanes 1
param *.node[*].helper.platoonSize 8
param *.node[*].helper_type "\"PositionHelper\""
param *.node[*].mobility.x 0
param *.node[*].mobility.y 0
param *.node[*].mobility.z 1.895
param *.node[*].prot.attackStart 30s
param *.node[*].prot.attackerType 4
param *.node[*].prot.attackingNode 3
param *.node[*].prot.beaconingInterval 0.1s
param *.node[*].prot.fakeAcc "(4 == 4)"
param *.node[*].prot.fakePos "(4 == 2)"
param *.node[*].prot.fakeSpeed "(4 == 3)"
param *.node[*].prot.maliciousAcc "-30 mpss"
param *.node[*].prot.maliciousSpeed 150kmph
param *.node[*].prot.packetSize 200
param *.node[*].prot.priority 2
param *.node[*].prot.shiftX "7 m"
param *.node[*].prot.useControllerAcceleration true
param *.node[*].protocol_type "\"SimplePlatooningBeaconing\""
param *.node[*].scenario.accHeadway 0.1s
param *.node[*].scenario.caccC1 0.5
param *.node[*].scenario.caccOmegaN "0.2 Hz"
param *.node[*].scenario.caccSpacing 5m
param *.node[*].scenario.caccXi 1
param *.node[*].scenario.controller "\"CACC\""
param *.node[*].scenario.engineTau "0.5 s"
param *.node[*].scenario.leaderHeadway 1.2s
param *.node[*].scenario.leaderSpeed 150kmph
param *.node[*].scenario.ploegH 0.5s
param *.node[*].scenario.ploegKd 0.7
param *.node[*].scenario.ploegKp 0.2
param *.node[*].scenario.useRealisticEngine false
param *.node[*].scenario_type "\"SinusoidalScenario\""
param *.node[*].unicast.packetLossRate 0
param *.obstacles.debug false
param *.playgroundSizeX 65000m
param *.playgroundSizeY 25000m
param *.playgroundSizeZ 50m
param *.world.use2D false
param *.world.useTorus false

vector 0  scenario.node[0].appl  distance  ETV
vector 1  scenario.node[0].appl  relativeSpeed  ETV
vector 2  scenario.node[0].appl  nodeId  ETV
vector 6  scenario.node[0].appl  acceleration  ETV
vector 7  scenario.node[0].appl  controllerAcceleration  ETV
vector 3  scenario.node[0].appl  speed  ETV
vector 4  scenario.node[0].appl  posx  ETV
vector 5  scenario.node[0].appl  posy  ETV
vector 22  scenario.node[1].appl  distance  ETV
vector 23  scenario.node[1].appl  relativeSpeed  ETV
vector 24  scenario.node[1].appl  nodeId  ETV
vector 28  scenario.node[1].appl  acceleration  ETV
vector 29  scenario.node[1].appl  controllerAcceleration  ETV
vector 25  scenario.node[1].appl  speed  ETV
vector 26  scenario.node[1].appl  posx  ETV
vector 27  scenario.node[1].appl  posy  ETV
vector 44  scenario.node[2].appl  distance  ETV
vector 45  scenario.node[2].appl  relativeSpeed  ETV
vector 46  scenario.node[2].appl  nodeId  ETV
vector 50  scenario.node[2].appl  acceleration  ETV
vector 51  scenario.node[2].appl  controllerAcceleration  ETV
vector 47  scenario.node[2].appl  speed  ETV
vector 48  scenario.node[2].appl  posx  ETV
vector 49  scenario.node[2].appl  posy  ETV
vector 66  scenario.node[3].appl  distance  ETV
vector 67  scenario.node[3].appl  relativeSpeed  ETV
vector 68  scenario.node[3].appl  nodeId  ETV
vector 72  scenario.node[3].appl  acceleration  ETV
vector 73  scenario.node[3].appl  controllerAcceleration  ETV
vector 69  scenario.node[3].appl  speed  ETV
vector 70  scenario.node[3].appl  posx  ETV
vector 71  scenario.node[3].appl  posy  ETV
vector 88  scenario.node[4].appl  distance  ETV
vector 89  scenario.node[4].appl  relativeSpeed  ETV
vector 90  scenario.node[4].appl  nodeId  ETV
vector 94  scenario.node[4].appl  acceleration  ETV
vector 95  scenario.node[4].appl  controllerAcceleration  ETV
vector 91  scenario.node[4].appl  speed  ETV
vector 92  scenario.node[4].appl  posx  ETV
vector 93  scenario.node[4].appl  posy  ETV
vector 110  scenario.node[5].appl  distance  ETV
vector 111  scenario.node[5].appl  relativeSpeed  ETV
vector 112  scenario.node[5].appl  nodeId  ETV
vector 116  scenario.node[5].appl  acceleration  ETV
vector 117  scenario.node[5].appl  controllerAcceleration  ETV
vector 113  scenario.node[5].appl  speed  ETV
vector 114  scenario.node[5].appl  posx  ETV
vector 115  scenario.node[5].appl  posy  ETV
vector 132  scenario.node[6].appl  distance  ETV
vector 133  scenario.node[6].appl  relativeSpeed  ETV
vector 134  scenario.node[6].appl  nodeId  ETV
vector 138  scenario.node[6].appl  acceleration  ETV
vector 139  scenario.node[6].appl  controllerAcceleration  ETV
vector 135  scenario.node[6].appl  speed  ETV
vector 136  scenario.node[6].appl  posx  ETV
vector 137  scenario.node[6].appl  posy  ETV
vector 154  scenario.node[7].appl  distance  ETV
vector 155  scenario.node[7].appl  relativeSpeed  ETV
vector 156  scenario.node[7].appl  nodeId  ETV
vector 160  scenario.node[7].appl  acceleration  ETV
vector 161  scenario.node[7].appl  controllerAcceleration  ETV
vector 157  scenario.node[7].appl  speed  ETV
vector 158  scenario.node[7].appl  posx  ETV
vector 159  scenario.node[7].appl  posy  ETV
vector 102  scenario.node[4].prot  frontDelay  ETV
vector 100  scenario.node[4].prot  frontDelayId  ETV
vector 35  scenario.node[1].prot  leaderDelay  ETV
vector 33  scenario.node[1].prot  leaderDelayId  ETV
vector 36  scenario.node[1].prot  frontDelay  ETV
vector 34  scenario.node[1].prot  frontDelayId  ETV
vector 57  scenario.node[2].prot  leaderDelay  ETV
vector 55  scenario.node[2].prot  leaderDelayId  ETV
vector 79  scenario.node[3].prot  leaderDelay  ETV
vector 77  scenario.node[3].prot  leaderDelayId  ETV
vector 101  scenario.node[4].prot  leaderDelay  ETV
vector 99  scenario.node[4].prot  leaderDelayId  ETV
vector 123  scenario.node[5].prot  leaderDelay  ETV
vector 121  scenario.node[5].prot  leaderDelayId  ETV
vector 145  scenario.node[6].prot  leaderDelay  ETV
vector 143  scenario.node[6].prot  leaderDelayId  ETV
vector 167  scenario.node[7].prot  leaderDelay  ETV
vector 165  scenario.node[7].prot  leaderDelayId  ETV
vector 80  scenario.node[3].prot  frontDelay  ETV
vector 78  scenario.node[3].prot  frontDelayId  ETV
vector 146  scenario.node[6].prot  frontDelay  ETV
vector 144  scenario.node[6].prot  frontDelayId  ETV
vector 58  scenario.node[2].prot  frontDelay  ETV
vector 56  scenario.node[2].prot  frontDelayId  ETV
vector 124  scenario.node[5].prot  frontDelay  ETV
vector 122  scenario.node[5].prot  frontDelayId  ETV
vector 168  scenario.node[7].prot  frontDelay  ETV
vector 166  scenario.node[7].prot  frontDelayId  ETV
vector 8  scenario.node[0].prot  nodeId  ETV
vector 9  scenario.node[0].prot  busyTime  ETV
vector 10  scenario.node[0].prot  collisions  ETV
vector 30  scenario.node[1].prot  nodeId  ETV
vector 31  scenario.node[1].prot  busyTime  ETV
vector 32  scenario.node[1].prot  collisions  ETV
vector 52  scenario.node[2].prot  nodeId  ETV
vector 53  scenario.node[2].prot  busyTime  ETV
vector 54  scenario.node[2].prot  collisions  ETV
vector 74  scenario.node[3].prot  nodeId  ETV
vector 75  scenario.node[3].prot  busyTime  ETV
vector 76  scenario.node[3].prot  collisions  ETV
vector 96  scenario.node[4].prot  nodeId  ETV
vector 97  scenario.node[4].prot  busyTime  ETV
vector 98  scenario.node[4].prot  collisions  ETV
vector 118  scenario.node[5].prot  nodeId  ETV
vector 119  scenario.node[5].prot  busyTime  ETV
vector 120  scenario.node[5].prot  collisions  ETV
vector 140  scenario.node[6].prot  nodeId  ETV
vector 141  scenario.node[6].prot  busyTime  ETV
vector 142  scenario.node[6].prot  collisions  ETV
vector 162  scenario.node[7].prot  nodeId  ETV
vector 163  scenario.node[7].prot  busyTime  ETV
vector 164  scenario.node[7].prot  collisions  ETV
7	11079 7277 232 170319 1.11 31.61 306 -1.5 1.5 10.822356189537 484.26089747463
6	18356 9592 232 170319 1.11 31.61 306 -1.4722746794739 1.4513241957715 2.8651811245467 323.16681728533
5	27948 6138 232 170319 1.11 31.61 306 36.55 36.55 11184.3 408786.165
4	34086 9173 232 170319 1.11 31.61 306 113.44186668356 1387.3199692223 230100.29871488 214738274.96288
3	43259 9151 232 170319 1.11 31.61 306 40.376926150007 43.631381416411 12780.537456124 534023.16598716
1	52410 4914 232 170319 1.11 31.61 306 0 0 0 0
0	57324 5220 232 170319 1.11 31.61 306 -1 -1 -306 306
2	62544 4914 232 170319 1.11 31.61 306 0 0 0 0
10	67458 424 5234 166966 2 31 30 0 0 0 0
9	67882 575 5234 166966 2 31 30 0.023625 0.02625 0.784875 0.020540953125
8	68457 394 5234 166966 2 31 30 0 0 0 0
29	68851 9838 233 170320 1.11 31.61 306 -1.5034793943763 1.5024511425223 9.1625402959338 480.4230224755
28	78689 9886 233 170320 1.11 31.61 306 -1.4807765623239 1.4557932514926 2.1416387839771 322.83467187119
27	88575 6444 233 170320 1.11 31.61 306 36.55 36.55 11184.3 408786.165
26	95019 9475 233 170320 1.11 31.61 306 104.44186668396 1378.3092569343 227347.44417051 210624877.02056
25	104494 9461 233 170320 1.11 31.61 306 40.376174691599 43.638018520183 12780.404663304 534013.11324234
23	113955 10366 233 170320 1.11 31.61 306 -0.064317861632617 0.062036140265477 0.104141008654 0.58851149339513
22	124321 9476 233 170320 1.11 31.61 306 4.9162243244476 5.0934694866734 1528.8518885183 7639.1525151294
24	133797 5220 233 170320 1.11 31.61 306 1 1 306 306
36	139017 12160 964 170495 1.241822900623 31.64181884505 305 0.099998658966 0.10001166931 30.499994604884 3.0499989256832
35	151177 12160 964 170495 1.241822900623 31.64181884505 305 0.099998658966 0.10001166931 30.499994604884 3.0499989256832
34	163337 8228 964 170495 1.241822900623 31.64181884505 305 1 1 305 305
33	171565 8228 964 170495 1.241822900623 31.64181884505 305 1 1 305 305
32	179793 424 5235 166967 2 31 30 0 0 0 0
31	180217 605 5235 166967 2 31 30 0.023625 0.02625 0.784875 0.020540953125
30	180822 424 5235 166967 2 31 30 1 1 30 30
51	181246 9827 234 170321 1.11 31.61 306 -1.5169291880382 1.5151528895636 9.163044814477 485.42006875524
50	191073 9895 234 170321 1.11 31.61 306 -1.474469215502 1.4486483630179 1.8535657089764 320.27540634049
49	200968 6444 234 170321 1.11 31.61 306 36.55 36.55 11184.3 408786.165
48	207412 9471 234 170321 1.11 31.61 306 95.44186668396 1369.3120435605 224593.8324175 206559283.82008
47	216883 9476 234 170321 1.11 31.61 306 40.378695957997 43.631366668468 12780.422486659 534013.18157976
45	226359 10463 234 170321 1.11 31.61 306 -0.018683340416167 0.016164860213557 -0.039239742965862 0.030854110094225
44	236822 9452 234 170321 1.11 31.61 306 4.9677844590645 5.0430600949808 1529.6121094732 7646.2217940874
46	246274 5220 234 170321 1.11 31.61 306 2 2 612 1224
58	251494 12174 1176 170701 1.28193217081 31.681928150558 305 0.099998658959 0.100011663844 30.499994640205 3.0499989327472
57	263668 12160 970 170501 1.241822930644 31.641818875064 305 0.099998658967 0.100011669317 30.499994604877 3.0499989256818
56	275828 8236 1176 170701 1.28193217081 31.681928150558 305 2 2 610 1220
55	284064 8220 970 170501 1.241822930644 31.641818875064 305 2 2 610 1220
54	292284 424 5236 166968 2 31 30 0 0 0 0
53	292708 605 5236 166968 2 31 30 0.023625 0.02625 0.784875 0.020540953125
52	293313 424 5236 166968 2 31 30 2 2 60 120
73	293737 9832 235 170322 1.11 31.61 306 -1.4985212103817 1.4980940666313 8.7412619134004 473.2114900871
72	303569 9907 235 170322 1.11 31.61 306 -1.4637937989967 1.4376572548755 1.662818006546 315.02694343832
71	313476 6444 235 170322 1.11 31.61 306 36.55 36.55 11184.3 408786.165
70	319920 9475 235 170322 1.11 31.61 306 86.44186668396 1360.3213917609 221840.03663895 202543148.64157
69	329395 9481 235 170322 1.11 31.61 306 40.388178954312 43.621112215386 12780.509275467 534017.19525032
67	338876 10539 235 170322 1.11 31.61 306 -0.015548587177328 0.013757095980523 -0.10532446502631 0.016096015156379
66	349415 9473 235 170322 1.11 31.61 306 4.9738525080993 5.0387417426492 1529.797514321 7648.0462042312
68	358888 5220 235 170322 1.11 31.61 306 3 3 918 2754
80	364108 12159 1040 170565 1.262749960665 31.662758905057 305 0.099998658965 0.100011686006 30.500007604849 3.0500015258108
79	376267 12164 976 170507 1.241822960664 31.641818905056 305 0.099998658964 0.10001166932 30.499994604849 3.0499989256762
78	388431 8220 1040 170565 1.262749960665 31.662758905057 305 3 3 915 2745
77	396651 8224 976 170507 1.241822960664 31.641818905056 305 3 3 915 2745
76	404875 424 5237 166969 2 31 30 0 0 0 0
75	405299 605 5237 166969 2 31 30 0.023625 0.02625 0.784875 0.020540953125
74	405904 424 5237 166969 2 31 30 3 3 90 270
95	406328 9840 236 170323 1.11 31.61 306 -14.345346124171 1.4922979865255 -202.36354368651 2681.3184244526
94	416168 9862 236 170323 1.11 31.61 306 -9.0000000000003 1.4336101314363 -139.53396678297 1372.8757773952
93	426030 6444 236 170323 1.11 31.61 306 36.55 36.55 11184.3 408786.165
92	432474 9472 236 170323 1.11 31.61 306 77.44186668396 1341.9398945461 219038.05167991 198448172.71691
91	441946 9467 236 170323 1.11 31.61 306 28.12244783454 43.618503468398 12681.830907157 526800.25763091
89	451413 10298 236 170323 1.11 31.61 306 -0.026253898993744 13.632491257437 98.661740129731 918.78365022636
88	461711 9470 236 170323 1.11 31.61 306 4.9580811292889 14.108568418597 1576.011391675 8377.490847148
90	471181 5220 236 170323 1.11 31.61 306 4 4 1224 4896
102	476401 12458 904 170441 1.240525810561 31.64053478763 305 0.099998658953 0.10001168442 30.500007637526 3.0500015323461
101	488859 12480 982 170513 1.241822990685 31.64181896777 305 0.099998658966 0.100011671793 30.499994637542 3.0499989322148
100	501339 8525 904 170441 1.240525810561 31.64053478763 305 4 4 1220 4880
99	509864 8228 982 170513 1.241822990685 31.64181896777 305 4 4 1220 4880
98	518092 424 5238 166970 2 31 30 0 0 0 0
97	518516 605 5238 166970 2 31 30 0.023625 0.02625 0.784875 0.020540953125
96	519121 424 5238 166970 2 31 30 4 4 120 480
139	519545 10159 238 170325 1.11 31.61 306 -2.5165351871658 1.4892820876451 -50.908798736894 522.57435328811
138	529704 10198 238 170325 1.11 31.61 306 -2.3340151863891 1.4234684601746 -38.505693560737 342.54613836794
137	539902 6750 238 170325 1.11 31.61 306 36.55 36.55 11184.3 408786.165
136	546652 9775 238 170325 1.11 31.61 306 59.44186668396 1331.0983486464 213567.40476976 190762005.39289
135	556427 9776 238 170325 1.11 31.61 306 37.924200234661 43.60224079454 12756.902620483 532124.63245146
133	566203 10667 238 170325 1.11 31.61 306 -3.8259928753659 0.019374222580829 -27.41788322415 72.161701163061
132	576870 9756 238 170325 1.11 31.61 306 2.3950897670973 5.0150693281148 1517.2130278666 7544.0212933073
134	586626 5526 238 170325 1.11 31.61 306 6 6 1836 11016
146	592152 12470 1106 170637 1.266712050727 31.666708003202 305 0.099998658961 0.100011669912 30.499994612932 3.0499989272928
145	604622 12465 994 170525 1.241823050727 31.641819002931 305 0.099998658961 0.100011669889 30.499994612661 3.0499989272386
144	617087 8539 1106 170637 1.266712050727 31.666708003202 305 6 6 1830 10980
143	625626 8530 994 170525 1.241823050727 31.641819002931 305 6 6 1830 10980
142	634156 454 5240 166972 2 31 30 0 0 0 0
141	634610 635 5240 166972 2 31 30 0.023625 0.02625 0.784875 0.020540953125
140	635245 454 5240 166972 2 31 30 6 6 180 1080
161	635699 10181 239 170326 1.11 31.61 306 -1.4963534210076 1.4966188660653 -23.44636563366 445.56393476141
160	645880 10214 239 170326 1.11 31.61 306 -1.4517793408615 1.4279262022271 -19.073215809505 298.35151592897
159	656094 6750 239 170326 1.11 31.61 306 36.55 36.55 11184.3 408786.165
158	662844 9774 239 170326 1.11 31.61 306 50.44186668396 1323.2248958121 210818.23206937 186955529.72188
157	672618 9767 239 170326 1.11 31.61 306 39.789969513333 43.606618467681 12768.834893615 533065.81051923
155	682385 10626 239 170326 1.11 31.61 306 -1.8424291268086 0.034536352440441 -11.547216196395 14.755847783331
154	693011 9763 239 170326 1.11 31.61 306 3.9107682199399 5.0229359094831 1525.4113458506 7607.5941647007
156	702774 5526 239 170326 1.11 31.61 306 7 7 2142 14994
168	708300 12465 1308 170839 1.289466320914 31.68946230478 305 0.099998658955 0.100011663992 30.499994644323 3.0499989335708
167	720765 12460 1000 170531 1.241823080747 31.641819029001 305 0.099998658962 0.100011669598 30.499994608711 3.0499989264486
166	733225 8526 1308 170839 1.289466320914 31.68946230478 305 7 7 2135 14945
165	741751 8527 1000 170531 1.241823080747 31.641819029001 305 7 7 2135 14945
164	750278 454 5241 166973 2 31 30 0 0 0 0
163	750732 635 5241 166973 2 31 30 0.023625 0.02625 0.784875 0.020540953125
162	751367 454 5241 166973 2 31 30 7 7 210 1470
110	751821 9783 237 170874 1.11 31.7 307 0 5.0290410696524 1506.9353165546 7484.7825559947
111	761604 10662 237 170874 1.11 31.7 307 -6.2244851750092 0.03522061702418 -51.698494490569 225.01917549666
112	772266 5544 237 170874 1.11 31.7 307 5 5 1535 7675
113	777810 9814 237 170874 1.11 31.7 307 33.597046092705 43.610690141938 12762.297302234 531139.13980132
114	787624 9813 237 170874 1.11 31.7 307 68.44186668396 1340.4531113407 217648.50686168 196391351.82068
115	797437 6772 237 170874 1.11 31.7 307 36.55 36.55 11220.85 410122.0675
116	804209 10232 237 170874 1.11 31.7 307 -5.1953797728927 1.4285447661024 -83.411549420684 623.09997282543
117	814441 10192 237 170874 1.11 31.7 307 -6.5490555564081 1.4988827556411 -110.98233392241 988.07696594162
118	824633 454 5239 166971 2 31 30 5 5 150 750
119	825087 635 5239 166971 2 31 30 0.023625 0.02625 0.784875 0.020540953125
120	825722 454 5239 166971 2 31 30 0 0 0 0
121	826176 8539 988 170519 1.241823020706 31.641818982254 305 5 5 1525 7625
122	834715 8525 1242 170767 1.287402260872 31.687398258836 305 5 5 1525 7625
123	843240 12473 988 170519 1.241823020706 31.641818982254 305 0.099998658963 0.100011670593 30.499994622005 3.0499989291074
124	855713 12457 1242 170767 1.287402260872 31.687398258836 305 0.099998658956 0.100011681842 30.500007658421 3.050001536525
