file 957385 1512143884                                          
version 2
run SinusoidalAccInjectionAttack-185-20171201-16:57:45-80081
attr CACCSpacing 20
attr attackAcc 10
attr attackPos 7
attr attackSpeed 150
attr attackStart 30
attr attacker 4
attr beaconInterval 0.1
attr configname SinusoidalAccInjectionAttack
attr controller 1
attr datetime 20171201-16:57:45
attr experiment SinusoidalAccInjectionAttack
attr fakeAcc "(4 == 4)"
attr fakePos "(4 == 2)"
attr fakeSpeed "(4 == 3)"
attr inifile omnetpp_185.ini
attr iterationvars "$attacker=4, $attackSpeed=150, $attackPos=7, $attackAcc=10, $leaderSpeed=50, $controller=1, $CACCSpacing=20, $sController=\"CACC\", $attackStart=30, $0=20, $1=0, $nCars=8, $platoonSize=8, $nLanes=1, $beaconInterval=0.1, $priority=2, $packetSize=200, $ploegH=0.5, $leaderHeadway=1.2, $fakeSpeed=(4 == 3), $fakeAcc=(4 == 4), $fakePos=(4 == 2)"
attr iterationvarsf attacker=4,attackSpeed=150,attackPos=7,attackAcc=10,leaderSpeed=50,controller=1,CACCSpacing=20,sController=CACC,attackStart=30,20,0,nCars=8,platoonSize=8,nLanes=1,beaconInterval=0.1,priority=2,packetSize=200,ploegH=0.5,leaderHeadway=1.2,fakeSpeed=(4_==_3),fakeAcc=(4_==_4),fakePos=(4_==_2)-
attr leaderHeadway 1.2
attr leaderSpeed 50
attr measurement "$attacker=4, $attackSpeed=150, $attackPos=7, $attackAcc=10, $leaderSpeed=50, $controller=1, $CACCSpacing=20, $sController=\"CACC\", $attackStart=30, $0=20, $1=0, $nCars=8, $platoonSize=8, $nLanes=1, $beaconInterval=0.1, $priority=2, $packetSize=200, $ploegH=0.5, $leaderHeadway=1.2, $fakeSpeed=(4 == 3), $fakeAcc=(4 == 4), $fakePos=(4 == 2)"
attr nCars 8
attr nLanes 1
attr network scenario
attr packetSize 200
attr platoonSize 8
attr ploegH 0.5
attr priority 2
attr processid 80081
attr repetition 0
attr replication #0
attr resultdir results
attr runnumber 185
attr sController "\"CACC\""
attr seedset 0
param **.coreDebug false
param **.debug false
param **.headway 0.1s
param **.numberOfCars 8
param **.numberOfCarsPerPlatoon 8
param **.numberOfLanes 1
param **.numericController 1
param **.traffic.nCars 8
param **.traffic.nLanes 1
param **.traffic.platoonInsertDistance 20m
param **.traffic.platoonInsertHeadway 0s
param **.traffic.platoonInsertSpeed 50kmph
param **.traffic.platoonInsertTime "1 s"
param **.traffic.platoonLeaderHeadway 1.2s
param **.traffic.platoonSize 8
param **.traffic.platooningVType "\"vtypeauto\""
param **.traffic_type "\"PlatoonsTrafficManager\""
param *.**.nic.mac1609_4.bitrate 6Mbps
param *.**.nic.mac1609_4.txPower 100mW
param *.**.nic.mac1609_4.useServiceChannel false
param *.**.nic.phy80211p.analogueModels "xmldoc(\"config.xml\")"
param *.**.nic.phy80211p.decider "xmldoc(\"config.xml\")"
param *.**.nic.phy80211p.maxTXPower 100mW
param *.**.nic.phy80211p.sensitivity -94dBm
param *.**.nic.phy80211p.thermalNoise -95dBm
param *.**.nic.phy80211p.usePropagationDelay true
param *.**.nic.phy80211p.useThermalNoise true
param *.annotations.draw false
param *.connectionManager.alpha 2.0
param *.connectionManager.carrierFrequency "5.890e9 Hz"
param *.connectionManager.pMax 100mW
param *.connectionManager.sat -94dBm
param *.connectionManager.sendDirect true
param *.manager.autoShutdown true
param *.manager.commandLine "\"sumo --remote-port $port --seed $seed --configuration-file $configFile\""
param *.manager.configFile "\"./sumocfg/freeway.sumo.cfg\""
param *.manager.host "\"localhost\""
param *.manager.margin 25
param *.manager.moduleDisplayString "\"\""
param *.manager.moduleName "\"node\""
param *.manager.moduleType "\"Car\""
param *.manager.updateInterval 0.01s
param *.node[*].appl.attackStart 30s
param *.node[*].appl.attackerType 4
param *.node[*].appl.simulationDuration "60 s"
param *.node[*].appl_type "\"SimplePlatooningApp\""
param *.node[*].helper.nCars 8
param *.node[*].helper.nLanes 1
param *.node[*].helper.platoonSize 8
param *.node[*].helper_type "\"PositionHelper\""
param *.node[*].mobility.x 0
param *.node[*].mobility.y 0
param *.node[*].mobility.z 1.895
param *.node[*].prot.attackStart 30s
param *.node[*].prot.attackerType 4
param *.node[*].prot.attackingNode 3
param *.node[*].prot.beaconingInterval 0.1s
param *.node[*].prot.fakeAcc "(4 == 4)"
param *.node[*].prot.fakePos "(4 == 2)"
param *.node[*].prot.fakeSpeed "(4 == 3)"
param *.node[*].prot.maliciousAcc "10 mpss"
param *.node[*].prot.maliciousSpeed 150kmph
param *.node[*].prot.packetSize 200
param *.node[*].prot.priority 2
param *.node[*].prot.shiftX "7 m"
param *.node[*].prot.useControllerAcceleration true
param *.node[*].protocol_type "\"SimplePlatooningBeaconing\""
param *.node[*].scenario.accHeadway 0.1s
param *.node[*].scenario.caccC1 0.5
param *.node[*].scenario.caccOmegaN "0.2 Hz"
param *.node[*].scenario.caccSpacing 20m
param *.node[*].scenario.caccXi 1
param *.node[*].scenario.controller "\"CACC\""
param *.node[*].scenario.engineTau "0.5 s"
param *.node[*].scenario.leaderHeadway 1.2s
param *.node[*].scenario.leaderSpeed 50kmph
param *.node[*].scenario.ploegH 0.5s
param *.node[*].scenario.ploegKd 0.7
param *.node[*].scenario.ploegKp 0.2
param *.node[*].scenario.useRealisticEngine false
param *.node[*].scenario_type "\"SinusoidalScenario\""
param *.node[*].unicast.packetLossRate 0
param *.obstacles.debug false
param *.playgroundSizeX 65000m
param *.playgroundSizeY 25000m
param *.playgroundSizeZ 50m
param *.world.use2D false
param *.world.useTorus false

vector 0  scenario.node[0].appl  distance  ETV
vector 1  scenario.node[0].appl  relativeSpeed  ETV
vector 2  scenario.node[0].appl  nodeId  ETV
vector 6  scenario.node[0].appl  acceleration  ETV
vector 7  scenario.node[0].appl  controllerAcceleration  ETV
vector 3  scenario.node[0].appl  speed  ETV
vector 4  scenario.node[0].appl  posx  ETV
vector 5  scenario.node[0].appl  posy  ETV
vector 22  scenario.node[1].appl  distance  ETV
vector 23  scenario.node[1].appl  relativeSpeed  ETV
vector 24  scenario.node[1].appl  nodeId  ETV
vector 28  scenario.node[1].appl  acceleration  ETV
vector 29  scenario.node[1].appl  controllerAcceleration  ETV
vector 25  scenario.node[1].appl  speed  ETV
vector 26  scenario.node[1].appl  posx  ETV
vector 27  scenario.node[1].appl  posy  ETV
vector 44  scenario.node[2].appl  distance  ETV
vector 45  scenario.node[2].appl  relativeSpeed  ETV
vector 46  scenario.node[2].appl  nodeId  ETV
vector 50  scenario.node[2].appl  acceleration  ETV
vector 51  scenario.node[2].appl  controllerAcceleration  ETV
vector 47  scenario.node[2].appl  speed  ETV
vector 48  scenario.node[2].appl  posx  ETV
vector 49  scenario.node[2].appl  posy  ETV
vector 66  scenario.node[3].appl  distance  ETV
vector 67  scenario.node[3].appl  relativeSpeed  ETV
vector 68  scenario.node[3].appl  nodeId  ETV
vector 72  scenario.node[3].appl  acceleration  ETV
vector 73  scenario.node[3].appl  controllerAcceleration  ETV
vector 69  scenario.node[3].appl  speed  ETV
vector 70  scenario.node[3].appl  posx  ETV
vector 71  scenario.node[3].appl  posy  ETV
vector 88  scenario.node[4].appl  distance  ETV
vector 89  scenario.node[4].appl  relativeSpeed  ETV
vector 90  scenario.node[4].appl  nodeId  ETV
vector 94  scenario.node[4].appl  acceleration  ETV
vector 95  scenario.node[4].appl  controllerAcceleration  ETV
vector 91  scenario.node[4].appl  speed  ETV
vector 92  scenario.node[4].appl  posx  ETV
vector 93  scenario.node[4].appl  posy  ETV
vector 110  scenario.node[5].appl  distance  ETV
vector 111  scenario.node[5].appl  relativeSpeed  ETV
vector 112  scenario.node[5].appl  nodeId  ETV
vector 116  scenario.node[5].appl  acceleration  ETV
vector 117  scenario.node[5].appl  controllerAcceleration  ETV
vector 113  scenario.node[5].appl  speed  ETV
vector 114  scenario.node[5].appl  posx  ETV
vector 115  scenario.node[5].appl  posy  ETV
vector 132  scenario.node[6].appl  distance  ETV
vector 133  scenario.node[6].appl  relativeSpeed  ETV
vector 134  scenario.node[6].appl  nodeId  ETV
vector 138  scenario.node[6].appl  acceleration  ETV
vector 139  scenario.node[6].appl  controllerAcceleration  ETV
vector 135  scenario.node[6].appl  speed  ETV
vector 136  scenario.node[6].appl  posx  ETV
vector 137  scenario.node[6].appl  posy  ETV
vector 154  scenario.node[7].appl  distance  ETV
vector 155  scenario.node[7].appl  relativeSpeed  ETV
vector 156  scenario.node[7].appl  nodeId  ETV
vector 160  scenario.node[7].appl  acceleration  ETV
vector 161  scenario.node[7].appl  controllerAcceleration  ETV
vector 157  scenario.node[7].appl  speed  ETV
vector 158  scenario.node[7].appl  posx  ETV
vector 159  scenario.node[7].appl  posy  ETV
vector 80  scenario.node[3].prot  frontDelay  ETV
vector 78  scenario.node[3].prot  frontDelayId  ETV
vector 58  scenario.node[2].prot  frontDelay  ETV
vector 56  scenario.node[2].prot  frontDelayId  ETV
vector 168  scenario.node[7].prot  frontDelay  ETV
vector 166  scenario.node[7].prot  frontDelayId  ETV
vector 35  scenario.node[1].prot  leaderDelay  ETV
vector 33  scenario.node[1].prot  leaderDelayId  ETV
vector 36  scenario.node[1].prot  frontDelay  ETV
vector 34  scenario.node[1].prot  frontDelayId  ETV
vector 57  scenario.node[2].prot  leaderDelay  ETV
vector 55  scenario.node[2].prot  leaderDelayId  ETV
vector 79  scenario.node[3].prot  leaderDelay  ETV
vector 77  scenario.node[3].prot  leaderDelayId  ETV
vector 101  scenario.node[4].prot  leaderDelay  ETV
vector 99  scenario.node[4].prot  leaderDelayId  ETV
vector 123  scenario.node[5].prot  leaderDelay  ETV
vector 121  scenario.node[5].prot  leaderDelayId  ETV
vector 145  scenario.node[6].prot  leaderDelay  ETV
vector 143  scenario.node[6].prot  leaderDelayId  ETV
vector 167  scenario.node[7].prot  leaderDelay  ETV
vector 165  scenario.node[7].prot  leaderDelayId  ETV
vector 124  scenario.node[5].prot  frontDelay  ETV
vector 122  scenario.node[5].prot  frontDelayId  ETV
vector 102  scenario.node[4].prot  frontDelay  ETV
vector 100  scenario.node[4].prot  frontDelayId  ETV
vector 146  scenario.node[6].prot  frontDelay  ETV
vector 144  scenario.node[6].prot  frontDelayId  ETV
vector 8  scenario.node[0].prot  nodeId  ETV
vector 9  scenario.node[0].prot  busyTime  ETV
vector 10  scenario.node[0].prot  collisions  ETV
vector 30  scenario.node[1].prot  nodeId  ETV
vector 31  scenario.node[1].prot  busyTime  ETV
vector 32  scenario.node[1].prot  collisions  ETV
vector 52  scenario.node[2].prot  nodeId  ETV
vector 53  scenario.node[2].prot  busyTime  ETV
vector 54  scenario.node[2].prot  collisions  ETV
vector 74  scenario.node[3].prot  nodeId  ETV
vector 75  scenario.node[3].prot  busyTime  ETV
vector 76  scenario.node[3].prot  collisions  ETV
vector 96  scenario.node[4].prot  nodeId  ETV
vector 97  scenario.node[4].prot  busyTime  ETV
vector 98  scenario.node[4].prot  collisions  ETV
vector 118  scenario.node[5].prot  nodeId  ETV
vector 119  scenario.node[5].prot  busyTime  ETV
vector 120  scenario.node[5].prot  collisions  ETV
vector 140  scenario.node[6].prot  nodeId  ETV
vector 141  scenario.node[6].prot  busyTime  ETV
vector 142  scenario.node[6].prot  collisions  ETV
vector 162  scenario.node[7].prot  nodeId  ETV
vector 163  scenario.node[7].prot  busyTime  ETV
vector 164  scenario.node[7].prot  collisions  ETV
7	11080 8058 232 188167 1.11 34.81 338 -1.5 1.5 -15.315251149858 536.99541519077
6	19138 10604 232 188167 1.11 34.81 338 -1.472274679513 1.4513407705126 -11.875205996219 365.91846429767
5	29742 6810 232 188167 1.11 34.81 338 36.55 36.55 12353.9 451535.045
4	36552 10159 232 188167 1.11 34.81 338 202.82875404345 675.32038915902 148744.64555974 71769269.764608
3	46711 10152 232 188167 1.11 34.81 338 12.59914837223 15.853603639796 4738.3956978734 66673.842491879
1	56863 5458 232 188167 1.11 34.81 338 0 0 0 0
0	62321 5796 232 188167 1.11 34.81 338 -1 -1 -338 338
2	68117 5458 232 188167 1.11 34.81 338 0 0 0 0
10	73575 468 5102 183568 2 34 33 0 0 0 0
9	74043 634 5102 183568 2 34 33 0.022969 0.02625 0.862969 0.022577574961
8	74677 435 5102 183568 2 34 33 0 0 0 0
29	75112 10199 233 188168 1.11 34.81 338 -1.5112642289108 1.512070130455 -16.057647658864 537.01879368293
28	85311 10937 233 188168 1.11 34.81 338 -1.482030289071 1.4492283742985 -11.416465845401 365.77296439711
27	96248 7148 233 188168 1.11 34.81 338 36.55 36.55 12353.9 451535.045
26	103396 10498 233 188168 1.11 34.81 338 178.82875404358 651.31860150408 140619.85889634 64811939.815484
25	113894 10504 233 188168 1.11 34.81 338 12.596070946852 15.852538032929 4738.3955638259 66673.564157509
23	124398 11452 233 188168 1.11 34.81 338 -0.07106481105334 0.076625316381502 0.11888610747503 0.9441159002107
22	135850 10494 233 188168 1.11 34.81 338 19.939712269083 20.145466383143 6772.7866607264 135712.94198692
24	146344 5796 233 188168 1.11 34.81 338 1 1 338 338
36	152140 13396 1032 187854 1.254913282269 34.754837656717 336 0.099909240509 0.100091242722 33.599937615998 3.3599880793361
35	165536 13396 1032 187854 1.254913282269 34.754837656717 336 0.099909240509 0.100091242722 33.599937615998 3.3599880793361
34	178932 9093 1032 187854 1.254913282269 34.754837656717 336 1 1 336 336
33	188025 9093 1032 187854 1.254913282269 34.754837656717 336 1 1 336 336
32	197118 468 5103 183569 2 34 33 0 0 0 0
31	197586 667 5103 183569 2 34 33 0.022969 0.02625 0.862969 0.022577574961
30	198253 468 5103 183569 2 34 33 1 1 33 33
51	198721 10887 234 188169 1.11 34.81 338 -1.4951715933761 1.4969403168635 -15.872404042574 525.62219493914
50	209608 10938 234 188169 1.11 34.81 338 -1.4749478834394 1.4483793291777 -11.029341763342 363.61442570469
49	220546 7148 234 188169 1.11 34.81 338 36.55 36.55 12353.9 451535.045
48	227694 10489 234 188169 1.11 34.81 338 154.82875404358 627.38786757643 132511.59644921 58261187.032835
47	238183 10488 234 188169 1.11 34.81 338 12.599772593804 15.849534689697 4739.1015684589 66691.57495291
45	248671 11448 234 188169 1.11 34.81 338 -0.042015735458428 0.035321629897977 -0.59183997458027 0.22684843867588
44	260119 10476 234 188169 1.11 34.81 338 19.926036220404 20.070368602191 6756.2765672186 135051.48568071
46	270595 5796 234 188169 1.11 34.81 338 2 2 676 1352
58	276391 13391 900 188273 1.22965940166 34.829661963108 337 0.099987239949 0.100000243927 33.700002802998 3.3700005615954
57	289782 13395 1038 187860 1.254913362325 34.754837736549 336 0.099909240517 0.100091242737 33.599937615774 3.3599880792913
56	303177 9088 900 188273 1.22965940166 34.829661963108 337 2 2 674 1348
55	312265 9093 1038 187860 1.254913362325 34.754837736549 336 2 2 672 1344
54	321358 468 5104 183570 2 34 33 0 0 0 0
53	321826 667 5104 183570 2 34 33 0.022969 0.02625 0.862969 0.022577574961
52	322493 468 5104 183570 2 34 33 2 2 66 132
73	322961 10883 235 188170 1.11 34.81 338 -1.4890347545755 1.4892302577913 -15.718777290849 511.74705222143
72	333844 10940 235 188170 1.11 34.81 338 -1.4633940821509 1.4358250214173 -10.74719683891 357.11193004575
71	344784 7148 235 188170 1.11 34.81 338 36.55 36.55 12353.9 451535.045
70	351932 10491 235 188170 1.11 34.81 338 130.82875404358 603.40666038176 124400.20579448 52096211.573973
69	362423 10490 235 188170 1.11 34.81 338 12.612563444857 15.839370548536 4739.2995155135 66692.980013416
67	372913 11585 235 188170 1.11 34.81 338 -0.022576862845417 0.018794908418132 -0.087653637008076 0.041703847420541
66	384498 10459 235 188170 1.11 34.81 338 19.965709014146 20.045084661091 6759.3946136753 135175.90109962
68	394957 5796 235 188170 1.11 34.81 338 3 3 1014 3042
80	400753 13433 832 188211 1.213906321605 34.813895883454 337 0.099987165804 0.100000243937 33.699989803399 3.3699979618401
79	414186 13355 1044 187866 1.25491344238 34.754837816548 336 0.099909240518 0.100091242747 33.599937615718 3.3599880792801
78	427541 9120 832 188211 1.213906321605 34.813895883454 337 3 3 1011 3033
77	436661 9052 1044 187866 1.25491344238 34.754837816548 336 3 3 1008 3024
76	445713 468 5105 183571 2 34 33 0 0 0 0
75	446181 667 5105 183571 2 34 33 0.022968 0.02625 0.862968 0.022577529024
74	446848 468 5105 183571 2 34 33 3 3 99 297
117	447316 10835 237 188172 1.11 34.81 338 -1.4897290259489 1.5 49.37783474005 516.55241169766
116	458151 11260 237 188172 1.11 34.81 338 -1.44781117016 1.4951631587657 44.305912225158 365.64349206779
115	469411 7486 237 188172 1.11 34.81 338 36.55 36.55 12353.9 451535.045
114	476897 10836 237 188172 1.11 34.81 338 82.828754043579 561.80631135477 108232.25907398 40994627.337673
113	487733 10826 237 188172 1.11 34.81 338 12.626204312527 18.274001608531 4805.2073880913 68746.375035912
111	498559 11670 237 188172 1.11 34.81 338 -0.038427828758104 4.1804143851339 132.99674062175 447.67727855664
110	510229 10817 237 188172 1.11 34.81 338 19.97386491418 33.160926277147 6997.884078875 146710.03174856
112	521046 6134 237 188172 1.11 34.81 338 5 5 1690 8450
124	527180 13710 1172 188000 1.265750082823 34.765752553011 336 0.099987240401 0.100000243921 33.600002711738 3.3600005433434
123	540890 13718 1056 187878 1.254913602491 34.754837956388 336 0.09990924051 0.100091242743 33.599937595447 3.359988075226
122	554608 9422 1172 188000 1.265750082823 34.765752553011 336 5 5 1680 8400
121	564030 9423 1056 187878 1.254913602491 34.754837956388 336 5 5 1680 8400
120	573453 501 5107 183573 2 34 33 0 0 0 0
119	573954 700 5107 183573 2 34 33 0.022968 0.02625 0.862968 0.022577529024
118	574654 501 5107 183573 2 34 33 5 5 165 825
139	575155 11199 238 188173 1.11 34.81 338 -1.4807666973144 1.5050357245562 21.812792721385 465.92729572415
138	586354 11257 238 188173 1.11 34.81 338 -1.4505591765344 1.4413190302358 20.377453482193 329.8765102716
137	597611 7486 238 188173 1.11 34.81 338 36.55 36.55 12353.9 451535.045
136	605097 10823 238 188173 1.11 34.81 338 58.828754043579 534.76767912219 100092.53970803 35965236.297182
135	615920 10826 238 188173 1.11 34.81 338 12.620062935452 15.911178405773 4773.9890183397 67714.281575949
133	626746 11785 238 188173 1.11 34.81 338 -0.019950013541267 2.3530180451679 30.775310629398 50.501546244941
132	638531 10816 238 188173 1.11 34.81 338 19.991561027077 22.99137576853 6787.0949985564 136332.44855295
134	649347 6134 238 188173 1.11 34.81 338 6 6 2028 12168
146	655481 13728 1312 188129 1.305160322989 34.805162674635 336 0.099987240083 0.100000243926 33.600002593196 3.360000519635
145	669209 13724 1062 187884 1.254913682546 34.754838046108 336 0.099909240511 0.100091242741 33.599937605112 3.359988077159
144	682933 9441 1312 188129 1.305160322989 34.805162674635 336 6 6 2016 12096
143	692374 9431 1062 187884 1.254913682546 34.754838046108 336 6 6 2016 12096
142	701805 501 5108 183574 2 34 33 0 0 0 0
141	702306 700 5108 183574 2 34 33 0.022969 0.02625 0.862969 0.022577574961
140	703006 501 5108 183574 2 34 33 6 6 198 1188
161	703507 11185 239 188174 1.11 34.81 338 -1.4935373322477 1.5005617606376 6.5113920152084 484.79343923356
160	714692 11284 239 188174 1.11 34.81 338 -1.4563373230494 1.43821846882 6.7216470398503 330.94755922985
159	725976 7486 239 188174 1.11 34.81 338 36.55 36.55 12353.9 451535.045
158	733462 10835 239 188174 1.11 34.81 338 34.82875213623 509.17146262053 91965.149035585 31340710.332878
157	744297 10829 239 188174 1.11 34.81 338 12.616898534514 15.829356398145 4757.5516961668 67212.896774528
155	755126 11965 239 188174 1.11 34.81 338 -0.0092142790346479 1.3416013930694 16.233547638088 14.471826856056
154	767091 10830 239 188174 1.11 34.81 338 19.980359086637 21.569308323502 6775.0619259989 135815.43236905
156	777921 6134 239 188174 1.11 34.81 338 7 7 2366 16562
168	784055 13723 975 187791 1.254434801937 34.754437192292 336 0.099987240242 0.10000024393 33.600002631905 3.3600005273767
167	797778 13724 1068 187890 1.254913762602 34.75483813122 336 0.099909240517 0.100091242748 33.599937610168 3.3599880781701
166	811502 9428 975 187791 1.254434801937 34.754437192292 336 7 7 2352 16464
165	820930 9427 1068 187890 1.254913762602 34.75483813122 336 7 7 2352 16464
164	830357 501 5109 183575 2 34 33 0 0 0 0
163	830858 700 5109 183575 2 34 33 0.022969 0.02625 0.862969 0.022577574961
162	831558 501 5109 183575 2 34 33 7 7 231 1617
88	832059 10487 236 188315 1.11 34.85 339 0 20.024761132492 6467.3807990746 126854.09101563
89	842546 11568 236 188315 1.11 34.85 339 -9.5512958085386 0.013417882732991 -209.19560680667 1307.3183442891
90	854114 5814 236 188315 1.11 34.85 339 4 4 1356 5424
91	859928 10523 236 188315 1.11 34.85 339 12.623206078426 22.365741336132 4961.4170398162 74019.379775304
92	870451 10536 236 188315 1.11 34.85 339 106.82875404358 599.94316640604 117184.76319747 47017952.78218
93	880987 7170 236 188315 1.11 34.85 339 36.55 36.55 12390.45 452870.9475
94	888157 10786 236 188315 1.11 34.85 339 -1.4529610514664 2.5 85.248656691727 511.61221619432
95	898943 10874 236 188315 1.11 34.85 339 -1.4821468247393 5.6883572428533 133.67033414872 1050.0164104583
96	909817 468 5106 183572 2 34 33 4 4 132 528
97	910285 667 5106 183572 2 34 33 0.022969 0.02625 0.862969 0.022577574961
98	910952 468 5106 183572 2 34 33 0 0 0 0
99	911420 9092 1050 187872 1.254913522436 34.754837832977 336 4 4 1344 5376
100	920512 9426 1246 188063 1.303564162878 34.803553460432 336 4 4 1344 5376
101	929938 13724 1050 187872 1.254913522436 34.754837832977 336 0.099909240516 0.100091242749 33.599937552091 3.3599880665549
102	943662 13723 1246 188063 1.303564162878 34.803553460432 336 0.099987214417 0.100000243924 33.599989539104 3.3599979089797
