file 956491 1512143954                                          
version 2
run SinusoidalAccInjectionAttack-206-20171201-16:58:56-112529
attr CACCSpacing 20
attr attackAcc 10
attr attackPos 7
attr attackSpeed 150
attr attackStart 30
attr attacker 4
attr beaconInterval 0.1
attr configname SinusoidalAccInjectionAttack
attr controller 1
attr datetime 20171201-16:58:56
attr experiment SinusoidalAccInjectionAttack
attr fakeAcc "(4 == 4)"
attr fakePos "(4 == 2)"
attr fakeSpeed "(4 == 3)"
attr inifile omnetpp_206.ini
attr iterationvars "$attacker=4, $attackSpeed=150, $attackPos=7, $attackAcc=10, $leaderSpeed=100, $controller=1, $CACCSpacing=20, $sController=\"CACC\", $attackStart=30, $0=20, $1=0, $nCars=8, $platoonSize=8, $nLanes=1, $beaconInterval=0.1, $priority=2, $packetSize=200, $ploegH=0.5, $leaderHeadway=1.2, $fakeSpeed=(4 == 3), $fakeAcc=(4 == 4), $fakePos=(4 == 2)"
attr iterationvarsf attacker=4,attackSpeed=150,attackPos=7,attackAcc=10,leaderSpeed=100,controller=1,CACCSpacing=20,sController=CACC,attackStart=30,20,0,nCars=8,platoonSize=8,nLanes=1,beaconInterval=0.1,priority=2,packetSize=200,ploegH=0.5,leaderHeadway=1.2,fakeSpeed=(4_==_3),fakeAcc=(4_==_4),fakePos=(4_==_2)-
attr leaderHeadway 1.2
attr leaderSpeed 100
attr measurement "$attacker=4, $attackSpeed=150, $attackPos=7, $attackAcc=10, $leaderSpeed=100, $controller=1, $CACCSpacing=20, $sController=\"CACC\", $attackStart=30, $0=20, $1=0, $nCars=8, $platoonSize=8, $nLanes=1, $beaconInterval=0.1, $priority=2, $packetSize=200, $ploegH=0.5, $leaderHeadway=1.2, $fakeSpeed=(4 == 3), $fakeAcc=(4 == 4), $fakePos=(4 == 2)"
attr nCars 8
attr nLanes 1
attr network scenario
attr packetSize 200
attr platoonSize 8
attr ploegH 0.5
attr priority 2
attr processid 112529
attr repetition 1
attr replication #1
attr resultdir results
attr runnumber 206
attr sController "\"CACC\""
attr seedset 1
param **.coreDebug false
param **.debug false
param **.headway 0.1s
param **.numberOfCars 8
param **.numberOfCarsPerPlatoon 8
param **.numberOfLanes 1
param **.numericController 1
param **.traffic.nCars 8
param **.traffic.nLanes 1
param **.traffic.platoonInsertDistance 20m
param **.traffic.platoonInsertHeadway 0s
param **.traffic.platoonInsertSpeed 100kmph
param **.traffic.platoonInsertTime "1 s"
param **.traffic.platoonLeaderHeadway 1.2s
param **.traffic.platoonSize 8
param **.traffic.platooningVType "\"vtypeauto\""
param **.traffic_type "\"PlatoonsTrafficManager\""
param *.**.nic.mac1609_4.bitrate 6Mbps
param *.**.nic.mac1609_4.txPower 100mW
param *.**.nic.mac1609_4.useServiceChannel false
param *.**.nic.phy80211p.analogueModels "xmldoc(\"config.xml\")"
param *.**.nic.phy80211p.decider "xmldoc(\"config.xml\")"
param *.**.nic.phy80211p.maxTXPower 100mW
param *.**.nic.phy80211p.sensitivity -94dBm
param *.**.nic.phy80211p.thermalNoise -95dBm
param *.**.nic.phy80211p.usePropagationDelay true
param *.**.nic.phy80211p.useThermalNoise true
param *.annotations.draw false
param *.connectionManager.alpha 2.0
param *.connectionManager.carrierFrequency "5.890e9 Hz"
param *.connectionManager.pMax 100mW
param *.connectionManager.sat -94dBm
param *.connectionManager.sendDirect true
param *.manager.autoShutdown true
param *.manager.commandLine "\"sumo --remote-port $port --seed $seed --configuration-file $configFile\""
param *.manager.configFile "\"./sumocfg/freeway.sumo.cfg\""
param *.manager.host "\"localhost\""
param *.manager.margin 25
param *.manager.moduleDisplayString "\"\""
param *.manager.moduleName "\"node\""
param *.manager.moduleType "\"Car\""
param *.manager.updateInterval 0.01s
param *.node[*].appl.attackStart 30s
param *.node[*].appl.attackerType 4
param *.node[*].appl.simulationDuration "60 s"
param *.node[*].appl_type "\"SimplePlatooningApp\""
param *.node[*].helper.nCars 8
param *.node[*].helper.nLanes 1
param *.node[*].helper.platoonSize 8
param *.node[*].helper_type "\"PositionHelper\""
param *.node[*].mobility.x 0
param *.node[*].mobility.y 0
param *.node[*].mobility.z 1.895
param *.node[*].prot.attackStart 30s
param *.node[*].prot.attackerType 4
param *.node[*].prot.attackingNode 3
param *.node[*].prot.beaconingInterval 0.1s
param *.node[*].prot.fakeAcc "(4 == 4)"
param *.node[*].prot.fakePos "(4 == 2)"
param *.node[*].prot.fakeSpeed "(4 == 3)"
param *.node[*].prot.maliciousAcc "10 mpss"
param *.node[*].prot.maliciousSpeed 150kmph
param *.node[*].prot.packetSize 200
param *.node[*].prot.priority 2
param *.node[*].prot.shiftX "7 m"
param *.node[*].prot.useControllerAcceleration true
param *.node[*].protocol_type "\"SimplePlatooningBeaconing\""
param *.node[*].scenario.accHeadway 0.1s
param *.node[*].scenario.caccC1 0.5
param *.node[*].scenario.caccOmegaN "0.2 Hz"
param *.node[*].scenario.caccSpacing 20m
param *.node[*].scenario.caccXi 1
param *.node[*].scenario.controller "\"CACC\""
param *.node[*].scenario.engineTau "0.5 s"
param *.node[*].scenario.leaderHeadway 1.2s
param *.node[*].scenario.leaderSpeed 100kmph
param *.node[*].scenario.ploegH 0.5s
param *.node[*].scenario.ploegKd 0.7
param *.node[*].scenario.ploegKp 0.2
param *.node[*].scenario.useRealisticEngine false
param *.node[*].scenario_type "\"SinusoidalScenario\""
param *.node[*].unicast.packetLossRate 0
param *.obstacles.debug false
param *.playgroundSizeX 65000m
param *.playgroundSizeY 25000m
param *.playgroundSizeZ 50m
param *.world.use2D false
param *.world.useTorus false

vector 0  scenario.node[0].appl  distance  ETV
vector 1  scenario.node[0].appl  relativeSpeed  ETV
vector 2  scenario.node[0].appl  nodeId  ETV
vector 6  scenario.node[0].appl  acceleration  ETV
vector 7  scenario.node[0].appl  controllerAcceleration  ETV
vector 3  scenario.node[0].appl  speed  ETV
vector 4  scenario.node[0].appl  posx  ETV
vector 5  scenario.node[0].appl  posy  ETV
vector 22  scenario.node[1].appl  distance  ETV
vector 23  scenario.node[1].appl  relativeSpeed  ETV
vector 24  scenario.node[1].appl  nodeId  ETV
vector 28  scenario.node[1].appl  acceleration  ETV
vector 29  scenario.node[1].appl  controllerAcceleration  ETV
vector 25  scenario.node[1].appl  speed  ETV
vector 26  scenario.node[1].appl  posx  ETV
vector 27  scenario.node[1].appl  posy  ETV
vector 44  scenario.node[2].appl  distance  ETV
vector 45  scenario.node[2].appl  relativeSpeed  ETV
vector 46  scenario.node[2].appl  nodeId  ETV
vector 50  scenario.node[2].appl  acceleration  ETV
vector 51  scenario.node[2].appl  controllerAcceleration  ETV
vector 47  scenario.node[2].appl  speed  ETV
vector 48  scenario.node[2].appl  posx  ETV
vector 49  scenario.node[2].appl  posy  ETV
vector 66  scenario.node[3].appl  distance  ETV
vector 67  scenario.node[3].appl  relativeSpeed  ETV
vector 68  scenario.node[3].appl  nodeId  ETV
vector 72  scenario.node[3].appl  acceleration  ETV
vector 73  scenario.node[3].appl  controllerAcceleration  ETV
vector 69  scenario.node[3].appl  speed  ETV
vector 70  scenario.node[3].appl  posx  ETV
vector 71  scenario.node[3].appl  posy  ETV
vector 88  scenario.node[4].appl  distance  ETV
vector 89  scenario.node[4].appl  relativeSpeed  ETV
vector 90  scenario.node[4].appl  nodeId  ETV
vector 94  scenario.node[4].appl  acceleration  ETV
vector 95  scenario.node[4].appl  controllerAcceleration  ETV
vector 91  scenario.node[4].appl  speed  ETV
vector 92  scenario.node[4].appl  posx  ETV
vector 93  scenario.node[4].appl  posy  ETV
vector 110  scenario.node[5].appl  distance  ETV
vector 111  scenario.node[5].appl  relativeSpeed  ETV
vector 112  scenario.node[5].appl  nodeId  ETV
vector 116  scenario.node[5].appl  acceleration  ETV
vector 117  scenario.node[5].appl  controllerAcceleration  ETV
vector 113  scenario.node[5].appl  speed  ETV
vector 114  scenario.node[5].appl  posx  ETV
vector 115  scenario.node[5].appl  posy  ETV
vector 132  scenario.node[6].appl  distance  ETV
vector 133  scenario.node[6].appl  relativeSpeed  ETV
vector 134  scenario.node[6].appl  nodeId  ETV
vector 138  scenario.node[6].appl  acceleration  ETV
vector 139  scenario.node[6].appl  controllerAcceleration  ETV
vector 135  scenario.node[6].appl  speed  ETV
vector 136  scenario.node[6].appl  posx  ETV
vector 137  scenario.node[6].appl  posy  ETV
vector 154  scenario.node[7].appl  distance  ETV
vector 155  scenario.node[7].appl  relativeSpeed  ETV
vector 156  scenario.node[7].appl  nodeId  ETV
vector 160  scenario.node[7].appl  acceleration  ETV
vector 161  scenario.node[7].appl  controllerAcceleration  ETV
vector 157  scenario.node[7].appl  speed  ETV
vector 158  scenario.node[7].appl  posx  ETV
vector 159  scenario.node[7].appl  posy  ETV
vector 58  scenario.node[2].prot  frontDelay  ETV
vector 56  scenario.node[2].prot  frontDelayId  ETV
vector 102  scenario.node[4].prot  frontDelay  ETV
vector 100  scenario.node[4].prot  frontDelayId  ETV
vector 146  scenario.node[6].prot  frontDelay  ETV
vector 144  scenario.node[6].prot  frontDelayId  ETV
vector 168  scenario.node[7].prot  frontDelay  ETV
vector 166  scenario.node[7].prot  frontDelayId  ETV
vector 124  scenario.node[5].prot  frontDelay  ETV
vector 122  scenario.node[5].prot  frontDelayId  ETV
vector 35  scenario.node[1].prot  leaderDelay  ETV
vector 33  scenario.node[1].prot  leaderDelayId  ETV
vector 36  scenario.node[1].prot  frontDelay  ETV
vector 34  scenario.node[1].prot  frontDelayId  ETV
vector 57  scenario.node[2].prot  leaderDelay  ETV
vector 55  scenario.node[2].prot  leaderDelayId  ETV
vector 79  scenario.node[3].prot  leaderDelay  ETV
vector 77  scenario.node[3].prot  leaderDelayId  ETV
vector 101  scenario.node[4].prot  leaderDelay  ETV
vector 99  scenario.node[4].prot  leaderDelayId  ETV
vector 123  scenario.node[5].prot  leaderDelay  ETV
vector 121  scenario.node[5].prot  leaderDelayId  ETV
vector 145  scenario.node[6].prot  leaderDelay  ETV
vector 143  scenario.node[6].prot  leaderDelayId  ETV
vector 167  scenario.node[7].prot  leaderDelay  ETV
vector 165  scenario.node[7].prot  leaderDelayId  ETV
vector 80  scenario.node[3].prot  frontDelay  ETV
vector 78  scenario.node[3].prot  frontDelayId  ETV
vector 8  scenario.node[0].prot  nodeId  ETV
vector 9  scenario.node[0].prot  busyTime  ETV
vector 10  scenario.node[0].prot  collisions  ETV
vector 30  scenario.node[1].prot  nodeId  ETV
vector 31  scenario.node[1].prot  busyTime  ETV
vector 32  scenario.node[1].prot  collisions  ETV
vector 52  scenario.node[2].prot  nodeId  ETV
vector 53  scenario.node[2].prot  busyTime  ETV
vector 54  scenario.node[2].prot  collisions  ETV
vector 74  scenario.node[3].prot  nodeId  ETV
vector 75  scenario.node[3].prot  busyTime  ETV
vector 76  scenario.node[3].prot  collisions  ETV
vector 96  scenario.node[4].prot  nodeId  ETV
vector 97  scenario.node[4].prot  busyTime  ETV
vector 98  scenario.node[4].prot  collisions  ETV
vector 118  scenario.node[5].prot  nodeId  ETV
vector 119  scenario.node[5].prot  busyTime  ETV
vector 120  scenario.node[5].prot  collisions  ETV
vector 140  scenario.node[6].prot  nodeId  ETV
vector 141  scenario.node[6].prot  busyTime  ETV
vector 142  scenario.node[6].prot  collisions  ETV
vector 162  scenario.node[7].prot  nodeId  ETV
vector 163  scenario.node[7].prot  busyTime  ETV
vector 164  scenario.node[7].prot  collisions  ETV
7	11088 8055 232 188167 1.11 34.81 338 -1.5 1.5 -15.315255284342 536.99541525525
6	19143 10617 232 188167 1.11 34.81 338 -1.4722746794938 1.451340770512 -11.875210233531 365.91846440919
5	29760 6810 232 188167 1.11 34.81 338 36.55 36.55 12353.9 451535.045
4	36570 10147 232 188167 1.11 34.81 338 203.38317031834 1143.9303613673 228033.42727559 178879138.99833
3	46717 10154 232 188167 1.11 34.81 338 26.488037261118 29.742492528104 9432.8401463702 263496.56271959
1	56871 5458 232 188167 1.11 34.81 338 0 0 0 0
0	62329 5796 232 188167 1.11 34.81 338 -1 -1 -338 338
2	68125 5458 232 188167 1.11 34.81 338 0 0 0 0
10	73583 468 5168 183634 2 34 33 0 0 0 0
9	74051 634 5168 183634 2 34 33 0.023297 0.02625 0.863297 0.022592750209
8	74685 435 5168 183634 2 34 33 0 0 0 0
29	75120 9780 233 188168 1.11 34.81 338 -1.5466261422272 1.5427619280957 -17.989790745228 543.80507768271
28	84900 10946 233 188168 1.11 34.81 338 -1.4899163920546 1.4506836311249 -11.048210354845 366.91614910188
27	95846 7148 233 188168 1.11 34.81 338 36.55 36.55 12353.9 451535.045
26	102994 10496 233 188168 1.11 34.81 338 179.3831703186 1119.7447764236 219862.91654238 168033996.87104
25	113490 10493 233 188168 1.11 34.81 338 26.476974864243 29.732323955484 9431.014368264 263394.27134497
23	123983 11301 233 188168 1.11 34.81 338 -0.12212624323105 0.14226264349096 1.9445302085624 2.7652351947711
22	135284 10497 233 188168 1.11 34.81 338 19.955408041301 20.41804562426 6818.4742176501 137554.57155276
24	145781 5796 233 188168 1.11 34.81 338 1 1 338 338
36	151577 13421 1238 188060 1.297803401661 34.79780987308 336 0.099999269862 0.100012284051 33.600005752305 3.3600011534904
35	164998 13421 1238 188060 1.297803401661 34.79780987308 336 0.099999269862 0.100012284051 33.600005752305 3.3600011534904
34	178419 9085 1238 188060 1.297803401661 34.79780987308 336 1 1 336 336
33	187504 9085 1238 188060 1.297803401661 34.79780987308 336 1 1 336 336
32	196589 468 5169 183635 2 34 33 0 0 0 0
31	197057 667 5169 183635 2 34 33 0.023297 0.02625 0.863297 0.022592750209
30	197724 468 5169 183635 2 34 33 1 1 33 33
51	198192 10768 234 188169 1.11 34.81 338 -1.5013789189422 1.5 -15.606312419383 524.0148735859
50	208960 10944 234 188169 1.11 34.81 338 -1.4795465362251 1.4451253722875 -10.941313743945 362.92599612483
49	219904 7148 234 188169 1.11 34.81 338 36.55 36.55 12353.9 451535.045
48	227052 10498 234 188169 1.11 34.81 338 155.3831703186 1095.663791355 211735.96948641 157651522.60175
47	237550 10490 234 188169 1.11 34.81 338 26.480520720116 29.721741405991 9430.2081695655 263346.60995202
45	248040 11656 234 188169 1.11 34.81 338 -0.0071014905340974 0.01362616114978 0.91668080207573 0.012158055597219
44	259696 10471 234 188169 1.11 34.81 338 19.99999995392 20.093426211287 6774.9309319925 135798.16707855
46	270167 5796 234 188169 1.11 34.81 338 2 2 676 1352
58	275963 13466 832 188205 1.212436360941 34.812442114059 337 0.099999271138 0.100012284181 33.700005034004 3.3700010098306
57	289429 13436 1244 188066 1.297803481717 34.797809953407 336 0.099999269858 0.100012284053 33.600005752576 3.3600011535446
56	302865 9119 832 188205 1.212436360941 34.812442114059 337 2 2 674 1348
55	311984 9094 1244 188066 1.297803481717 34.797809953407 336 2 2 672 1344
54	321078 468 5170 183636 2 34 33 0 0 0 0
53	321546 667 5170 183636 2 34 33 0.023296 0.02625 0.863296 0.022592703616
52	322213 468 5170 183636 2 34 33 2 2 66 132
73	322681 10859 235 188170 1.11 34.81 338 -1.4907242777278 1.4960972914815 -15.747450530512 513.18256872041
72	333540 10925 235 188170 1.11 34.81 338 -1.4676550573046 1.443132550893 -10.730099110696 359.50997186958
71	344465 7148 235 188170 1.11 34.81 338 36.55 36.55 12353.9 451535.045
70	351613 10499 235 188170 1.11 34.81 338 131.3831703186 1071.7065594053 203630.98145746 147694291.80912
69	362112 10501 235 188170 1.11 34.81 338 26.488696441652 29.713305205038 9430.6438390994 263368.64345256
67	372613 11594 235 188170 1.11 34.81 338 -0.021861808505278 0.014939181441232 -0.3262563965168 0.02718482123331
66	384207 10471 235 188170 1.11 34.81 338 19.935010645319 20.042503288962 6752.9967423436 134920.23939346
68	394678 5796 235 188170 1.11 34.81 338 3 3 1014 3042
80	400474 13429 1312 188129 1.307225561772 34.807219033321 336 0.09999926985 0.100012284027 33.599992752435 3.3599985533663
79	413903 13435 1250 188072 1.297803561772 34.797810033321 336 0.099999269849 0.100012284055 33.600005752435 3.3600011535164
78	427338 9094 1312 188129 1.307225561772 34.807219033321 336 3 3 1008 3024
77	436432 9101 1250 188072 1.297803561772 34.797810033321 336 3 3 1008 3024
76	445533 468 5171 183637 2 34 33 0 0 0 0
75	446001 667 5171 183637 2 34 33 0.023297 0.02625 0.863297 0.022592750209
74	446668 468 5171 183637 2 34 33 3 3 99 297
117	447136 10815 237 188172 1.11 34.81 338 -1.5271094736786 3.6247469843442 51.564070754158 566.4273209574
116	457951 11249 237 188172 1.11 34.81 338 -1.465375215075 1.4991102038447 46.022085222146 378.7477900903
115	469200 7486 237 188172 1.11 34.81 338 36.55 36.55 12353.9 451535.045
114	476686 10836 237 188172 1.11 34.81 338 83.383170318604 1032.1993817107 187518.8905114 129146346.12937
113	487522 10822 237 188172 1.11 34.81 338 26.488705534476 32.349478222675 9517.5451186379 268492.81202047
111	498344 11706 237 188172 1.11 34.81 338 -0.021219185032159 3.8586655086554 108.34626591823 321.95906421234
110	510050 10799 237 188172 1.11 34.81 338 19.947049125416 30.707431029977 6935.7659683548 143426.60963024
112	520849 6134 237 188172 1.11 34.81 338 5 5 1690 8450
124	526983 13771 1178 188006 1.297390081439 34.797383650867 336 0.099999274346 0.100012284665 33.599992850314 3.3599985729421
123	540754 13771 1262 188084 1.297803721883 34.797810165476 336 0.099999268017 0.100012284042 33.600005724479 3.3600011479252
122	554525 9430 1178 188006 1.297390081439 34.797383650867 336 5 5 1680 8400
121	563955 9435 1262 188084 1.297803721883 34.797810165476 336 5 5 1680 8400
120	573390 501 5173 183639 2 34 33 0 0 0 0
119	573891 700 5173 183639 2 34 33 0.023297 0.02625 0.863297 0.022592750209
118	574591 501 5173 183639 2 34 33 5 5 165 825
139	575092 11037 238 188173 1.11 34.81 338 -1.4994812225324 2.568187385265 24.251407997214 493.1600762136
138	586129 11284 238 188173 1.11 34.81 338 -1.4608902332768 1.4706459214349 22.638856736003 339.538758578
137	597413 7486 238 188173 1.11 34.81 338 36.55 36.55 12353.9 451535.045
136	604899 10846 238 188173 1.11 34.81 338 59.383172225952 1004.1942172258 179355.91519595 120238943.265
135	615745 10832 238 188173 1.11 34.81 338 26.494816529523 30.027883195528 9476.6779095745 266012.51950032
133	626577 11684 238 188173 1.11 34.81 338 -0.022227648824817 2.3144609192642 40.406988211194 58.553178002615
132	638261 10832 238 188173 1.11 34.81 338 19.970544082701 23.958732584331 6810.1579712664 137325.61745433
134	649093 6134 238 188173 1.11 34.81 338 6 6 2028 12168
146	655227 13804 970 188343 1.248713681163 34.848706419025 337 0.099999268757 0.100012284096 33.699992018748 3.3699984066294
145	669031 13745 1268 188090 1.297803801938 34.797810258736 336 0.099999268782 0.100012284041 33.600005737684 3.3600011505662
144	682776 9459 970 188343 1.248713681163 34.848706419025 337 6 6 2022 12132
143	692235 9417 1268 188090 1.297803801938 34.797810258736 336 6 6 2016 12096
142	701652 501 5174 183640 2 34 33 0 0 0 0
141	702153 700 5174 183640 2 34 33 0.023297 0.02625 0.863297 0.022592750209
140	702853 501 5174 183640 2 34 33 6 6 198 1188
161	703354 10328 239 188174 1.11 34.81 338 -1.5084785480431 1.5101632403568 7.5707607003549 490.35221357613
160	713682 11309 239 188174 1.11 34.81 338 -1.4625053298801 1.4517297025979 8.4048255654725 334.90038109071
159	724991 7486 239 188174 1.11 34.81 338 36.55 36.55 12353.9 451535.045
158	732477 10826 239 188174 1.11 34.81 338 35.383171749115 977.79429168682 171209.687017 111759925.61848
157	743303 10826 239 188174 1.11 34.81 338 26.493832936957 29.710144135823 9452.1840792786 264585.83750703
155	754129 11744 239 188174 1.11 34.81 338 -0.021571410515207 1.4004799013778 24.267441728527 20.180680843401
154	765873 10830 239 188174 1.11 34.81 338 19.989912945883 22.371868583478 6793.73830235 136594.23799508
156	776703 6134 239 188174 1.11 34.81 338 7 7 2366 16562
168	782837 13779 1040 188413 1.263894761218 34.863887507323 337 0.099999269227 0.100012284096 33.699992026991 3.369998408278
167	796616 13753 1274 188096 1.297803881994 34.797810346703 336 0.099999269242 0.10001228404 33.600005745595 3.3600011521484
166	810369 9441 1040 188413 1.263894761218 34.863887507323 337 7 7 2359 16513
165	819810 9423 1274 188096 1.297803881994 34.797810346703 336 7 7 2352 16464
164	829233 501 5175 183641 2 34 33 0 0 0 0
163	829734 700 5175 183641 2 34 33 0.023297 0.02625 0.863297 0.022592750209
162	830434 501 5175 183641 2 34 33 7 7 231 1617
88	830935 10487 236 188455 1.11 34.89 339 0 20.006724461053 6474.0630032945 126955.01919858
89	841422 11515 236 188455 1.11 34.89 339 -9.5753109941008 0.014072232684686 -205.5599954782 1278.5158150231
90	852937 5814 236 188455 1.11 34.89 339 4 4 1356 5424
91	858751 10527 236 188455 1.11 34.89 339 26.487571209677 36.240028699286 9662.9758532739 276827.1148737
92	869278 10528 236 188455 1.11 34.89 339 107.3831703186 1069.8818975332 196878.72219141 139851461.44749
93	879806 7170 236 188455 1.11 34.89 339 36.55 36.55 12390.45 452870.9475
94	886976 10946 236 188455 1.11 34.89 339 -1.4660392155321 2.5000000000002 84.974279985969 518.89052375984
95	897922 10874 236 188455 1.11 34.89 339 -1.49896143485 5.7098014478432 135.43288108146 1082.0193870925
96	908796 468 5172 183638 2 34 33 4 4 132 528
97	909264 667 5172 183638 2 34 33 0.023297 0.02625 0.863297 0.022592750209
98	909931 468 5172 183638 2 34 33 0 0 0 0
99	910399 9087 1256 188078 1.297803641828 34.797810049705 336 4 4 1344 5376
100	919486 9447 902 188275 1.235040521052 34.835046209091 337 4 4 1348 5392
101	928933 13762 1256 188078 1.297803641828 34.797810049705 336 0.099999266731 0.100012284034 33.600005688763 3.360001140782
102	942695 13796 902 188275 1.235040521052 34.835046209091 337 0.099999268047 0.100012284185 33.700004968925 3.3700009968148
