version 2
run SinusoidalAccInjectionAttack-268-20171201-17:04:30-29053
attr CACCSpacing 20
attr attackAcc 30
attr attackPos 7
attr attackSpeed 150
attr attackStart 30
attr attacker 4
attr beaconInterval 0.1
attr configname SinusoidalAccInjectionAttack
attr controller 1
attr datetime 20171201-17:04:30
attr experiment SinusoidalAccInjectionAttack
attr fakeAcc "(4 == 4)"
attr fakePos "(4 == 2)"
attr fakeSpeed "(4 == 3)"
attr inifile omnetpp_268.ini
attr iterationvars "$attacker=4, $attackSpeed=150, $attackPos=7, $attackAcc=30, $leaderSpeed=100, $controller=1, $CACCSpacing=20, $sController=\"CACC\", $attackStart=30, $0=20, $1=0, $nCars=8, $platoonSize=8, $nLanes=1, $beaconInterval=0.1, $priority=2, $packetSize=200, $ploegH=0.5, $leaderHeadway=1.2, $fakeSpeed=(4 == 3), $fakeAcc=(4 == 4), $fakePos=(4 == 2)"
attr iterationvarsf attacker=4,attackSpeed=150,attackPos=7,attackAcc=30,leaderSpeed=100,controller=1,CACCSpacing=20,sController=CACC,attackStart=30,20,0,nCars=8,platoonSize=8,nLanes=1,beaconInterval=0.1,priority=2,packetSize=200,ploegH=0.5,leaderHeadway=1.2,fakeSpeed=(4_==_3),fakeAcc=(4_==_4),fakePos=(4_==_2)-
attr leaderHeadway 1.2
attr leaderSpeed 100
attr measurement "$attacker=4, $attackSpeed=150, $attackPos=7, $attackAcc=30, $leaderSpeed=100, $controller=1, $CACCSpacing=20, $sController=\"CACC\", $attackStart=30, $0=20, $1=0, $nCars=8, $platoonSize=8, $nLanes=1, $beaconInterval=0.1, $priority=2, $packetSize=200, $ploegH=0.5, $leaderHeadway=1.2, $fakeSpeed=(4 == 3), $fakeAcc=(4 == 4), $fakePos=(4 == 2)"
attr nCars 8
attr nLanes 1
attr network scenario
attr packetSize 200
attr platoonSize 8
attr ploegH 0.5
attr priority 2
attr processid 29053
attr repetition 3
attr replication #3
attr resultdir results
attr runnumber 268
attr sController "\"CACC\""
attr seedset 3
param **.coreDebug false
param **.debug false
param **.headway 0.1s
param **.numberOfCars 8
param **.numberOfCarsPerPlatoon 8
param **.numberOfLanes 1
param **.numericController 1
param **.traffic.nCars 8
param **.traffic.nLanes 1
param **.traffic.platoonInsertDistance 20m
param **.traffic.platoonInsertHeadway 0s
param **.traffic.platoonInsertSpeed 100kmph
param **.traffic.platoonInsertTime "1 s"
param **.traffic.platoonLeaderHeadway 1.2s
param **.traffic.platoonSize 8
param **.traffic.platooningVType "\"vtypeauto\""
param **.traffic_type "\"PlatoonsTrafficManager\""
param *.**.nic.mac1609_4.bitrate 6Mbps
param *.**.nic.mac1609_4.txPower 100mW
param *.**.nic.mac1609_4.useServiceChannel false
param *.**.nic.phy80211p.analogueModels "xmldoc(\"config.xml\")"
param *.**.nic.phy80211p.decider "xmldoc(\"config.xml\")"
param *.**.nic.phy80211p.maxTXPower 100mW
param *.**.nic.phy80211p.sensitivity -94dBm
param *.**.nic.phy80211p.thermalNoise -95dBm
param *.**.nic.phy80211p.usePropagationDelay true
param *.**.nic.phy80211p.useThermalNoise true
param *.annotations.draw false
param *.connectionManager.alpha 2.0
param *.connectionManager.carrierFrequency "5.890e9 Hz"
param *.connectionManager.pMax 100mW
param *.connectionManager.sat -94dBm
param *.connectionManager.sendDirect true
param *.manager.autoShutdown true
param *.manager.commandLine "\"sumo --remote-port $port --seed $seed --configuration-file $configFile\""
param *.manager.configFile "\"./sumocfg/freeway.sumo.cfg\""
param *.manager.host "\"localhost\""
param *.manager.margin 25
param *.manager.moduleDisplayString "\"\""
param *.manager.moduleName "\"node\""
param *.manager.moduleType "\"Car\""
param *.manager.updateInterval 0.01s
param *.node[*].appl.attackStart 30s
param *.node[*].appl.attackerType 4
param *.node[*].appl.simulationDuration "60 s"
param *.node[*].appl_type "\"SimplePlatooningApp\""
param *.node[*].helper.nCars 8
param *.node[*].helper.nLanes 1
param *.node[*].helper.platoonSize 8
param *.node[*].helper_type "\"PositionHelper\""
param *.node[*].mobility.x 0
param *.node[*].mobility.y 0
param *.node[*].mobility.z 1.895
param *.node[*].prot.attackStart 30s
param *.node[*].prot.attackerType 4
param *.node[*].prot.attackingNode 3
param *.node[*].prot.beaconingInterval 0.1s
param *.node[*].prot.fakeAcc "(4 == 4)"
param *.node[*].prot.fakePos "(4 == 2)"
param *.node[*].prot.fakeSpeed "(4 == 3)"
param *.node[*].prot.maliciousAcc "30 mpss"
param *.node[*].prot.maliciousSpeed 150kmph
param *.node[*].prot.packetSize 200
param *.node[*].prot.priority 2
param *.node[*].prot.shiftX "7 m"
param *.node[*].prot.useControllerAcceleration true
param *.node[*].protocol_type "\"SimplePlatooningBeaconing\""
param *.node[*].scenario.accHeadway 0.1s
param *.node[*].scenario.caccC1 0.5
param *.node[*].scenario.caccOmegaN "0.2 Hz"
param *.node[*].scenario.caccSpacing 20m
param *.node[*].scenario.caccXi 1
param *.node[*].scenario.controller "\"CACC\""
param *.node[*].scenario.engineTau "0.5 s"
param *.node[*].scenario.leaderHeadway 1.2s
param *.node[*].scenario.leaderSpeed 100kmph
param *.node[*].scenario.ploegH 0.5s
param *.node[*].scenario.ploegKd 0.7
param *.node[*].scenario.ploegKp 0.2
param *.node[*].scenario.useRealisticEngine false
param *.node[*].scenario_type "\"SinusoidalScenario\""
param *.node[*].unicast.packetLossRate 0
param *.obstacles.debug false
param *.playgroundSizeX 65000m
param *.playgroundSizeY 25000m
param *.playgroundSizeZ 50m
param *.world.use2D false
param *.world.useTorus false

vector 0  scenario.node[0].appl  distance  ETV
vector 1  scenario.node[0].appl  relativeSpeed  ETV
vector 2  scenario.node[0].appl  nodeId  ETV
vector 6  scenario.node[0].appl  acceleration  ETV
vector 7  scenario.node[0].appl  controllerAcceleration  ETV
vector 3  scenario.node[0].appl  speed  ETV
vector 4  scenario.node[0].appl  posx  ETV
vector 5  scenario.node[0].appl  posy  ETV
vector 22  scenario.node[1].appl  distance  ETV
vector 23  scenario.node[1].appl  relativeSpeed  ETV
vector 24  scenario.node[1].appl  nodeId  ETV
vector 28  scenario.node[1].appl  acceleration  ETV
vector 29  scenario.node[1].appl  controllerAcceleration  ETV
vector 25  scenario.node[1].appl  speed  ETV
vector 26  scenario.node[1].appl  posx  ETV
vector 27  scenario.node[1].appl  posy  ETV
vector 44  scenario.node[2].appl  distance  ETV
vector 45  scenario.node[2].appl  relativeSpeed  ETV
vector 46  scenario.node[2].appl  nodeId  ETV
vector 50  scenario.node[2].appl  acceleration  ETV
vector 51  scenario.node[2].appl  controllerAcceleration  ETV
vector 47  scenario.node[2].appl  speed  ETV
vector 48  scenario.node[2].appl  posx  ETV
vector 49  scenario.node[2].appl  posy  ETV
vector 66  scenario.node[3].appl  distance  ETV
vector 67  scenario.node[3].appl  relativeSpeed  ETV
vector 68  scenario.node[3].appl  nodeId  ETV
vector 72  scenario.node[3].appl  acceleration  ETV
vector 73  scenario.node[3].appl  controllerAcceleration  ETV
vector 69  scenario.node[3].appl  speed  ETV
vector 70  scenario.node[3].appl  posx  ETV
vector 71  scenario.node[3].appl  posy  ETV
vector 88  scenario.node[4].appl  distance  ETV
vector 89  scenario.node[4].appl  relativeSpeed  ETV
vector 90  scenario.node[4].appl  nodeId  ETV
vector 94  scenario.node[4].appl  acceleration  ETV
vector 95  scenario.node[4].appl  controllerAcceleration  ETV
vector 91  scenario.node[4].appl  speed  ETV
vector 92  scenario.node[4].appl  posx  ETV
vector 93  scenario.node[4].appl  posy  ETV
vector 110  scenario.node[5].appl  distance  ETV
vector 111  scenario.node[5].appl  relativeSpeed  ETV
vector 112  scenario.node[5].appl  nodeId  ETV
vector 116  scenario.node[5].appl  acceleration  ETV
vector 117  scenario.node[5].appl  controllerAcceleration  ETV
vector 113  scenario.node[5].appl  speed  ETV
vector 114  scenario.node[5].appl  posx  ETV
vector 115  scenario.node[5].appl  posy  ETV
vector 132  scenario.node[6].appl  distance  ETV
vector 133  scenario.node[6].appl  relativeSpeed  ETV
vector 134  scenario.node[6].appl  nodeId  ETV
vector 138  scenario.node[6].appl  acceleration  ETV
vector 139  scenario.node[6].appl  controllerAcceleration  ETV
vector 135  scenario.node[6].appl  speed  ETV
vector 136  scenario.node[6].appl  posx  ETV
vector 137  scenario.node[6].appl  posy  ETV
vector 154  scenario.node[7].appl  distance  ETV
vector 155  scenario.node[7].appl  relativeSpeed  ETV
vector 156  scenario.node[7].appl  nodeId  ETV
vector 160  scenario.node[7].appl  acceleration  ETV
vector 161  scenario.node[7].appl  controllerAcceleration  ETV
vector 157  scenario.node[7].appl  speed  ETV
vector 158  scenario.node[7].appl  posx  ETV
vector 159  scenario.node[7].appl  posy  ETV
vector 35  scenario.node[1].prot  leaderDelay  ETV
vector 33  scenario.node[1].prot  leaderDelayId  ETV
vector 36  scenario.node[1].prot  frontDelay  ETV
vector 34  scenario.node[1].prot  frontDelayId  ETV
vector 57  scenario.node[2].prot  leaderDelay  ETV
vector 55  scenario.node[2].prot  leaderDelayId  ETV
vector 79  scenario.node[3].prot  leaderDelay  ETV
vector 77  scenario.node[3].prot  leaderDelayId  ETV
vector 101  scenario.node[4].prot  leaderDelay  ETV
vector 99  scenario.node[4].prot  leaderDelayId  ETV
vector 123  scenario.node[5].prot  leaderDelay  ETV
vector 121  scenario.node[5].prot  leaderDelayId  ETV
vector 145  scenario.node[6].prot  leaderDelay  ETV
vector 143  scenario.node[6].prot  leaderDelayId  ETV
vector 167  scenario.node[7].prot  leaderDelay  ETV
vector 165  scenario.node[7].prot  leaderDelayId  ETV
vector 168  scenario.node[7].prot  frontDelay  ETV
vector 166  scenario.node[7].prot  frontDelayId  ETV
vector 58  scenario.node[2].prot  frontDelay  ETV
vector 56  scenario.node[2].prot  frontDelayId  ETV
vector 124  scenario.node[5].prot  frontDelay  ETV
vector 122  scenario.node[5].prot  frontDelayId  ETV
vector 80  scenario.node[3].prot  frontDelay  ETV
vector 78  scenario.node[3].prot  frontDelayId  ETV
vector 146  scenario.node[6].prot  frontDelay  ETV
vector 144  scenario.node[6].prot  frontDelayId  ETV
vector 102  scenario.node[4].prot  frontDelay  ETV
vector 100  scenario.node[4].prot  frontDelayId  ETV
vector 8  scenario.node[0].prot  nodeId  ETV
vector 9  scenario.node[0].prot  busyTime  ETV
vector 10  scenario.node[0].prot  collisions  ETV
vector 30  scenario.node[1].prot  nodeId  ETV
vector 31  scenario.node[1].prot  busyTime  ETV
vector 32  scenario.node[1].prot  collisions  ETV
vector 52  scenario.node[2].prot  nodeId  ETV
vector 53  scenario.node[2].prot  busyTime  ETV
vector 54  scenario.node[2].prot  collisions  ETV
vector 74  scenario.node[3].prot  nodeId  ETV
vector 75  scenario.node[3].prot  busyTime  ETV
vector 76  scenario.node[3].prot  collisions  ETV
vector 96  scenario.node[4].prot  nodeId  ETV
vector 97  scenario.node[4].prot  busyTime  ETV
vector 98  scenario.node[4].prot  collisions  ETV
vector 118  scenario.node[5].prot  nodeId  ETV
vector 119  scenario.node[5].prot  busyTime  ETV
vector 120  scenario.node[5].prot  collisions  ETV
vector 140  scenario.node[6].prot  nodeId  ETV
vector 141  scenario.node[6].prot  busyTime  ETV
vector 142  scenario.node[6].prot  collisions  ETV
vector 162  scenario.node[7].prot  nodeId  ETV
vector 163  scenario.node[7].prot  busyTime  ETV
vector 164  scenario.node[7].prot  collisions  ETV
7	232	1.11	-8.430731206488e-07
7	788	1.21	-8.247038785214e-07
7	1344	1.31	-7.948429328053e-07
7	1900	1.41	-7.5609037608615e-07
7	2456	1.51	-7.1073863239235e-07
7	3012	1.61	-6.6078666094427e-07
7	3568	1.71	-6.079568990458e-07
7	4124	1.81	-5.5371389606762e-07
7	4680	1.91	-4.9928438983216e-07
7	5244	2.01	-4.4567811841034e-07
7	5800	2.11	-3.9370868165634e-07
7	6356	2.21	-3.4401411852514e-07
7	6912	2.31	-2.9707706872273e-07
7	7468	2.41	-2.5324398578164e-07
7	8024	2.51	-2.1274344064182e-07
7	8580	2.61	-1.7570315336002e-07
7	9136	2.71	-1.4216582755466e-07
7	9692	2.81	-1.1210364547765e-07
7	10248	2.91	-8.5431519636359e-08
7	10812	3.01	-6.2018816748832e-08
7	11368	3.11	-4.1699859565369e-08
7	11924	3.21	-2.4283316690799e-08
7	12480	3.31	-9.5601571103998e-09
7	13036	3.41	2.6894362292751e-09
7	13592	3.51	1.2690140493987e-08
7	14148	3.61	2.0666576006079e-08
7	14704	3.71	2.6839355626862e-08
7	15260	3.81	3.1421798496467e-08
7	15816	3.91	3.4617407607129e-08
7	16380	4.01	3.6617997523081e-08
7	16936	4.11	3.7602347902066e-08
7	17492	4.21	3.7735404134764e-08
7	18048	4.31	3.7167730226884e-08
7	18604	4.41	3.6035434192172e-08
7	19160	4.51	3.446024621212e-08
7	19716	4.61	3.2549973383311e-08
7	20272	4.71	3.0399071704323e-08
7	20828	4.81	2.8089345960325e-08
7	21384	4.91	2.5690727767369e-08
7	21949	5.01	2.326218861981e-08
7	22506	5.11	0.34814789186464
7	23063	5.21	0.68726937161622
7	23620	5.31	1.0064706311115
7	24177	5.41	1.2963311698934
7	24734	5.51	1.5
7	25291	5.61	1.5
7	25848	5.71	1.5
7	26405	5.81	1.5
7	26962	5.91	1.5
7	27527	6.01	1.5
7	28084	6.11	1.5
7	28641	6.21	1.5
7	29198	6.31	1.5
7	29755	6.41	1.5
7	30312	6.51	1.4919234148491
7	30869	6.61	1.226499329248
7	31426	6.71	0.92305384082895
7	31983	6.81	0.58908102066068
7	32540	6.91	0.2323562172788
7	33105	7.01	-0.13919559696193
7	33662	7.11	-0.51762846464532
7	34219	7.21	-0.89509993840359
7	34776	7.31	-1.2639902875456
7	35333	7.41	-1.5
7	35890	7.51	-1.5
7	36447	7.61	-1.5
7	37004	7.71	-1.5
7	37561	7.81	-1.5
7	38118	7.91	-1.5
7	38683	8.01	-1.5
7	39240	8.11	-1.5
7	39797	8.21	-1.5
7	40354	8.31	-1.5
7	40911	8.41	-1.5
7	41468	8.51	-1.5
7	42025	8.61	-1.5
7	42582	8.71	-1.5
7	43139	8.81	-1.5
7	43696	8.91	-1.5
7	44261	9.01	-1.5
7	44818	9.11	-1.5
7	45375	9.21	-1.5
7	45932	9.31	-1.5
7	46489	9.41	-1.5
7	47046	9.51	-1.1784535904302
7	47603	9.61	-0.73985166419522
7	48160	9.71	-0.29046662059022
7	48717	9.81	0.15868205669937
7	49274	9.91	0.59737147691163
7	49839	10.01	1.0162504341895
7	50396	10.11	1.4069035498921
7	50953	10.21	1.5
7	51510	10.31	1.5
7	52067	10.41	1.5
7	52624	10.51	1.5
7	53181	10.61	1.5
7	53738	10.71	1.5
7	54295	10.81	1.5
7	54852	10.91	1.5
7	55417	11.01	1.5
7	55974	11.11	1.5
7	56531	11.21	1.5
7	57088	11.31	1.5
7	57645	11.41	1.5
7	58202	11.51	1.5
7	58759	11.61	1.5
7	59316	11.71	1.5
7	59873	11.81	1.5
7	60430	11.91	1.142056952341
7	60995	12.01	0.73271074174567
7	61552	12.11	0.30763491703603
7	62109	12.21	-0.1229018340005
7	62666	12.31	-0.54917422864573
7	63223	12.41	-0.96209331715876
7	63780	12.51	-1.353290027524
7	64337	12.61	-1.5
7	64894	12.71	-1.5
7	65451	12.81	-1.5
7	66008	12.91	-1.5
7	66573	13.01	-1.5
7	67130	13.11	-1.5
7	67687	13.21	-1.5
7	68244	13.31	-1.5
7	68801	13.41	-1.5
7	69358	13.51	-1.5
7	69915	13.61	-1.5
7	70472	13.71	-1.5
7	71029	13.81	-1.5
7	71586	13.91	-1.5
7	72151	14.01	-1.5
7	72708	14.11	-1.5
7	73265	14.21	-1.5
7	73822	14.31	-1.5
7	74379	14.41	-1.3008305793136
7	74936	14.51	-0.8883573602082
7	75493	14.61	-0.45792464374534
7	76050	14.71	-0.020297800477731
7	76607	14.81	0.41435934757689
7	77164	14.91	0.83657487484984
7	77729	15.01	1.2376491838973
7	78286	15.11	1.5
7	78843	15.21	1.5
7	79400	15.31	1.5
7	79957	15.41	1.5
7	80514	15.51	1.5
7	81071	15.61	1.5
7	81628	15.71	1.5
7	82185	15.81	1.5
7	82742	15.91	1.5
7	83307	16.01	1.5
7	83864	16.11	1.5
7	84421	16.21	1.5
7	84978	16.31	1.5
7	85535	16.41	1.5
7	86092	16.51	1.5
7	86649	16.61	1.5
7	87206	16.71	1.5
7	87763	16.81	1.5
7	88320	16.91	1.2451238477401
7	88885	17.01	0.83347870135556
7	89442	17.11	0.40470958877082
7	89999	17.21	-0.03059806221717
7	90556	17.31	-0.46243980386486
7	91113	17.41	-0.8814833530446
7	91670	17.51	-1.2791500631707
7	92227	17.61	-1.5
7	92784	17.71	-1.5
7	93341	17.81	-1.5
7	93898	17.91	-1.5
7	94463	18.01	-1.5
7	95020	18.11	-1.5
7	95577	18.21	-1.5
7	96134	18.31	-1.5
7	96691	18.41	-1.5
7	97248	18.51	-1.5
7	97805	18.61	-1.5
7	98362	18.71	-1.5
7	98919	18.81	-1.5
7	99476	18.91	-1.5
7	100041	19.01	-1.5
7	100598	19.11	-1.5
7	101155	19.21	-1.5
7	101712	19.31	-1.5
7	102269	19.41	-1.2657245815118
7	102826	19.51	-0.85377693481412
7	103383	19.61	-0.42439560037995
7	103940	19.71	0.011767371269134
7	104497	19.81	0.44464851836491
7	105054	19.91	0.86486384400621
7	105619	20.01	1.2637899041136
7	106176	20.11	1.5
7	106733	20.21	1.5
7	107290	20.31	1.5
7	107847	20.41	1.5
7	108404	20.51	1.5
7	108961	20.61	1.5
7	109518	20.71	1.5
7	110075	20.81	1.5
7	110632	20.91	1.5
7	111197	21.01	1.5
7	111754	21.11	1.5
7	112311	21.21	1.5
7	112868	21.31	1.5
7	113425	21.41	1.5
7	113982	21.51	1.5
7	114539	21.61	1.5
7	115096	21.71	1.5
7	115653	21.81	1.5
7	116210	21.91	1.258091551777
7	116775	22.01	0.8462549163489
7	117332	22.11	0.41709956367568
7	117889	22.21	-0.018747163542116
7	118446	22.31	-0.45124369149361
7	119003	22.41	-0.87102520538537
7	119560	22.51	-1.2694848794591
7	120117	22.61	-1.5
7	120674	22.71	-1.5
7	121231	22.81	-1.5
7	121788	22.91	-1.5
7	122353	23.01	-1.5
7	122910	23.11	-1.5
7	123467	23.21	-1.5
7	124024	23.31	-1.5
7	124581	23.41	-1.5
7	125138	23.51	-1.5
7	125695	23.61	-1.5
7	126252	23.71	-1.5
7	126809	23.81	-1.5
7	127366	23.91	-1.5
7	127931	24.01	-1.5
7	128488	24.11	-1.5
7	129045	24.21	-1.5
7	129602	24.31	-1.5
7	130159	24.41	-1.2609239651112
7	130716	24.51	-0.8490461568448
7	131273	24.61	-0.41980696481052
7	131830	24.71	0.016157099446737
7	132387	24.81	0.44879633966076
7	132944	24.91	0.86873882266934
7	133509	25.01	1.26737155572
7	134066	25.11	1.5
7	134623	25.21	1.5
7	135180	25.31	1.5
7	135737	25.41	1.5
7	136294	25.51	1.5
7	136851	25.61	1.5
7	137408	25.71	1.5
7	137965	25.81	1.5
7	138522	25.91	1.5
7	139087	26.01	1.5
7	139644	26.11	1.5
7	140201	26.21	1.5
7	140758	26.31	1.5
7	141315	26.41	1.5
7	141872	26.51	1.5
7	142429	26.61	1.5
7	142986	26.71	1.5
7	143543	26.81	1.5
7	144100	26.91	1.2598728518634
7	144665	27.01	0.84801032251441
7	145222	27.11	0.41880224309152
7	145779	27.21	-0.017118277441824
7	146336	27.31	-0.44970455708397
7	146893	27.41	-0.86958730431876
7	147450	27.51	-1.2681558149826
7	148007	27.61	-1.5
7	148564	27.71	-1.5
7	149121	27.81	-1.5
7	149678	27.91	-1.5
7	150243	28.01	-1.5
7	150800	28.11	-1.5
7	151357	28.21	-1.5
7	151914	28.31	-1.5
7	152471	28.41	-1.5
7	153028	28.51	-1.5
7	153585	28.61	-1.5
7	154142	28.71	-1.5
7	154699	28.81	-1.5
7	155256	28.91	-1.5
7	155821	29.01	-1.5
7	156378	29.11	-1.5
7	156935	29.21	-1.5
7	157492	29.31	-1.5
7	158049	29.41	-1.2602629232513
7	158606	29.51	-0.84839472385599
7	159163	29.61	-0.41917509845245
7	159720	29.71	0.016761581287305
7	160277	29.81	0.44936751475852
7	160834	29.91	0.86927243012183
7	161399	30.01	1.267864773911
7	161956	30.11	1.5
7	162513	30.21	1.5
7	163070	30.31	1.5
7	163627	30.41	1.5
7	164184	30.51	1.5
7	164741	30.61	1.5
7	165298	30.71	1.5
7	165855	30.81	1.5
7	166412	30.91	1.5
7	166977	31.01	1.5
7	167534	31.11	1.5
7	168091	31.21	1.5
7	168648	31.31	1.5
7	169205	31.41	1.5
7	169762	31.51	1.5
7	170319	31.61	1.5
7	170876	31.71	1.5
7	171433	31.81	1.5
7	171990	31.91	1.2601181665204
7	172555	32.01	0.8482520712972
7	173112	32.11	0.41903673064365
7	173669	32.21	-0.016893952363397
7	174226	32.31	-0.44949259223633
7	174783	32.41	-0.8693892809368
7	175340	32.51	-1.2679727801776
7	175897	32.61	-1.5
7	176454	32.71	-1.5
7	177011	32.81	-1.5
7	177568	32.91	-1.5
7	178133	33.01	-1.5
7	178690	33.11	-1.5
7	179247	33.21	-1.5
7	179804	33.31	-1.5
7	180361	33.41	-1.5
7	180918	33.51	-1.5
7	181475	33.61	-1.5
7	182032	33.71	-1.5
7	182589	33.81	-1.5
7	183146	33.91	-1.5
7	183711	34.01	-1.5
7	184268	34.11	-1.5
7	184825	34.21	-1.5
7	185382	34.31	-1.5
7	185939	34.41	-1.2601718862041
7	186496	34.51	-0.84830501011592
7	187053	34.61	-0.41908807937801
6	232	1.11	-1.2391545567425e-07
6	788	1.21	-2.514333630188e-07
6	1344	1.31	-3.5153284727585e-07
6	1900	1.41	-4.2734420446777e-07
6	2456	1.51	-4.8187125401e-07
6	3012	1.61	-5.1795971955926e-07
6	3568	1.71	-5.3827413637464e-07
6	4124	1.81	-5.4528506154838e-07
6	4680	1.91	-5.4125663950799e-07
6	5244	2.01	-5.2824375984528e-07
6	5800	2.11	-5.080941889446e-07
6	6356	2.21	-4.8245141215375e-07
6	6912	2.31	-4.5276244975412e-07
6	7468	2.41	-4.202860282021e-07
6	8024	2.51	-3.8610643571246e-07
6	8580	2.61	-3.5114133822844e-07
6	9136	2.71	-3.1616025353287e-07
6	9692	2.81	-2.8179307776099e-07
6	10248	2.91	-2.4854536206931e-07
6	10812	3.01	-2.1681287876163e-07
6	11368	3.11	-1.8689298997288e-07
6	11924	3.21	-1.5899530581009e-07
6	12480	3.31	-1.3325838210676e-07
6	13036	3.41	-1.0975469422192e-07
6	13592	3.51	-8.8505203166278e-08
6	14148	3.61	-6.948575048682e-08
6	14704	3.71	-5.263665059374e-08
6	15260	3.81	-3.7870506730542e-08
6	15816	3.91	-2.5077895315917e-08
6	16380	4.01	-1.4133405557004e-08
6	16936	4.11	-4.9016790626411e-09
6	17492	4.21	2.7593927143243e-09
6	18048	4.31	8.9940499492513e-09
6	18604	4.41	1.3947598631603e-08
6	19160	4.51	1.7761081494427e-08
6	19716	4.61	2.0570567471623e-08
6	20272	4.71	2.2507151697937e-08
6	20828	4.81	2.3691626438449e-08
6	21384	4.91	2.4239099616352e-08
6	21949	5.01	2.4253310471067e-08
6	22506	5.11	0.0068264526728257
6	23063	5.21	0.074594836732089
6	23620	5.31	0.19005134681258
6	24177	5.41	0.34050272642077
6	24734	5.51	0.51301638947834
6	25291	5.61	0.6902545856434
6	25848	5.71	0.83572672600098
6	26405	5.81	0.95506454902292
6	26962	5.91	1.0529631292492
6	27527	6.01	1.133274063098
6	28084	6.11	1.1991570011418
6	28641	6.21	1.2532039573571
6	29198	6.31	1.2975412860019
6	29755	6.41	1.333913338177
6	30312	6.51	1.3635927249268
6	30869	6.61	1.3702053615898
6	31426	6.71	1.3272611926745
6	31983	6.81	1.2373810921854
6	32540	6.91	1.1040433755532
6	33105	7.01	0.93147092012096
6	33662	7.11	0.72451590565734
6	34219	7.21	0.48854318346834
6	34776	7.31	0.2293132962599
6	35333	7.41	-0.044839398398011
6	35890	7.51	-0.30626147443016
6	36447	7.61	-0.52071863005345
6	37004	7.71	-0.69664819306503
6	37561	7.81	-0.84097171097959
6	38118	7.91	-0.95936726353223
6	38683	8.01	-1.0564928537818
6	39240	8.11	-1.1361696666178
6	39797	8.21	-1.2015324045674
6	40354	8.31	-1.2551526155189
6	40911	8.41	-1.2991398644115
6	41468	8.51	-1.3352247292573
6	42025	8.61	-1.3648268867847
6	42582	8.71	-1.3891109663845
6	43139	8.81	-1.4090323697992
6	43696	8.91	-1.4253748592211
6	44261	9.01	-1.4387813926344
6	44818	9.11	-1.4497794195275
6	45375	9.21	-1.4588016321909
6	45932	9.31	-1.4662029890104
6	46489	9.41	-1.4722746794938
6	47046	9.51	-1.4696249146823
6	47603	9.61	-1.3967850639141
6	48160	9.71	-1.2587757641274
6	48717	9.81	-1.0660952217858
6	49274	9.91	-0.82923335017639
6	49839	10.01	-0.55852907832801
6	50396	10.11	-0.26404116068406
6	50953	10.21	0.03943269874469
6	51510	10.31	0.30182609756224
6	52067	10.41	0.51708007617997
6	52624	10.51	0.69366331158065
6	53181	10.61	0.83852306852847
6	53738	10.71	0.95735852386056
6	54295	10.81	1.0548449876072
6	54852	10.91	1.1348178424026
6	55417	11.01	1.2004234378704
6	55974	11.11	1.2542428765748
6	56531	11.21	1.2983935616166
6	57088	11.31	1.3346125010283
6	57645	11.41	1.3643246463978
6	58202	11.51	1.3886989543376
6	58759	11.61	1.4086943764163
6	59316	11.71	1.4250975869238
6	59873	11.81	1.4385539327762
6	60430	11.91	1.4345627372837
6	60995	12.01	1.3623449188774
6	61552	12.11	1.2299875654499
6	62109	12.21	1.0461448397812
6	62666	12.31	0.81967864249357
6	63223	12.41	0.55952045905059
6	63780	12.51	0.27454262949682
6	64337	12.61	-0.02234164487227
6	64894	12.71	-0.28780548057448
6	65451	12.81	-0.50557828687161
6	66008	12.91	-0.68422783827593
6	66573	13.01	-0.83078269404453
6	67130	13.11	-0.95100872081275
6	67687	13.21	-1.0496359374716
6	68244	13.31	-1.1305446069798
6	68801	13.41	-1.1969178964556
6	69358	13.51	-1.2513671116345
6	69915	13.61	-1.2960344327361
6	70472	13.71	-1.3326771936619
6	71029	13.81	-1.3627370202897
6	71586	13.91	-1.3873965479586
6	72151	14.01	-1.4076259495578
6	72708	14.11	-1.4242211047666
6	73265	14.21	-1.4378349121291
6	73822	14.31	-1.4490029758537
6	74379	14.41	-1.4542593951845
6	74936	14.51	-1.4067454390027
6	75493	14.61	-1.2938574955285
6	76050	14.71	-1.1248409052222
6	76607	14.81	-0.90912582142266
6	77164	14.91	-0.65618298375618
6	77729	15.01	-0.37539052553193
6	78286	15.11	-0.078063005083351
6	78843	15.21	0.20543869668366
6	79400	15.31	0.43800883574043
6	79957	15.41	0.62879735391697
6	80514	15.51	0.78531039043881
6	81071	15.61	0.91370559385808
6	81628	15.71	1.0190343806951
6	82185	15.81	1.1054406719047
6	82742	15.91	1.1763239259967
6	83307	16.01	1.2344728829817
6	83864	16.11	1.2821752809831
6	84421	16.21	1.3213078620836
6	84978	16.31	1.3534102084598
6	85535	16.41	1.3797453137308
6	86092	16.51	1.4013492725667
6	86649	16.61	1.4190720434691
6	87206	16.71	1.4336108884482
6	87763	16.81	1.4455378052084
6	88320	16.91	1.4502949065335
6	88885	17.01	1.3935559567532
6	89442	17.11	1.2733368701447
6	89999	17.21	1.098674244054
6	90556	17.31	0.87879676591527
6	91113	17.41	0.62298329276125
6	91670	17.51	0.34043137853565
6	92227	17.61	0.043031849081743
6	92784	17.71	-0.23417644595263
6	93341	17.81	-0.46158379949546
6	93898	17.91	-0.64813703535336
6	94463	18.01	-0.80117566522588
6	95020	18.11	-0.92672064505699
6	95577	18.21	-1.0297112558188
6	96134	18.31	-1.1141994282603
6	96691	18.41	-1.1835091568827
6	97248	18.51	-1.2403672749226
6	97805	18.61	-1.2870107353905
6	98362	18.71	-1.3252746188858
6	98919	18.81	-1.3566643306586
6	99476	18.91	-1.382414827345
6	100041	19.01	-1.4035392035215
6	100598	19.11	-1.4208685496044
6	101155	19.21	-1.4350846492011
6	101712	19.31	-1.4467468023362
6	102269	19.41	-1.4517201941775
6	102826	19.51	-1.3984004323884
6	103383	19.61	-1.280899381009
6	103940	19.71	-1.1083308503771
6	104497	19.81	-0.88999806036796
6	105054	19.91	-0.63525086466818
6	105619	20.01	-0.35335363991322
6	106176	20.11	-0.055983891306965
6	106733	20.21	0.22355126013309
6	107290	20.31	0.45286744637245
6	107847	20.41	0.64098658988812
6	108404	20.51	0.79530980944469
6	108961	20.61	0.92190860023926
6	109518	20.71	1.0257637030335
6	110075	20.81	1.1109610600446
6	110632	20.91	1.1808525670222
6	111197	21.01	1.2381879459468
6	111754	21.11	1.2852229265704
6	112311	21.21	1.32380799296
6	112868	21.31	1.3554611865732
6	113425	21.41	1.3814278301393
6	113982	21.51	1.402729522043
6	114539	21.61	1.4202043287796
6	115096	21.71	1.4345397567766
6	115653	21.81	1.4462998007627
6	116210	21.91	1.4512038299461
6	116775	22.01	1.3966149622046
6	117332	22.11	1.2781048258542
6	117889	22.21	1.104758616826
6	118446	22.31	0.88585193073989
6	119003	22.41	0.63070830476128
6	119560	22.51	0.3485673438103
6	120117	22.61	0.051185654371366
6	120674	22.71	-0.22748748564538
6	121231	22.81	-0.45609652227974
6	121788	22.91	-0.64363555681837
6	122353	23.01	-0.79748288496262
6	122910	23.11	-0.92369127904597
6	123467	23.21	-1.0272261205628
6	124024	23.31	-1.1121607517783
6	124581	23.41	-1.1818367320963
6	125138	23.51	-1.238995304092
6	125695	23.61	-1.2858852414524
6	126252	23.71	-1.3243513218473
6	126809	23.81	-1.355906905502
6	127366	23.91	-1.3817934749046
6	127931	24.01	-1.403029478104
6	128488	24.11	-1.4204503972248
6	129045	24.21	-1.434741618608
6	129602	24.31	-1.4464653977726
6	130159	24.41	-1.4513952146881
6	130716	24.51	-1.3972773206763
6	131273	24.61	-1.2791416668563
6	131830	24.71	-1.1060840673021
6	132387	24.81	-0.88739036841652
6	132944	24.91	-0.63239387292597
6	133509	25.01	-0.35034337810913
6	134066	25.11	-0.052966136909305
6	134623	25.21	0.2260268698226
6	135180	25.31	0.45489830857264
6	135737	25.41	0.64265260424108
6	136294	25.51	0.79667652148672
6	136851	25.61	0.92302978013947
6	137408	25.71	1.026683461059
6	137965	25.81	1.1117155819772
6	138522	25.91	1.1814715378073
6	139087	26.01	1.2386957175785
6	139644	26.11	1.2856394761656
6	140201	26.21	1.3241497087126
6	140758	26.31	1.3557415125099
6	141315	26.41	1.381657795045
6	141872	26.51	1.4029181733619
6	142429	26.61	1.4203590885685
6	142986	26.71	1.4346667137069
6	143543	26.81	1.4464039496644
6	144100	26.91	1.4513241957726
6	144665	27.01	1.3970315218256
6	145222	27.11	1.2787568961965
6	145779	27.21	1.1055921925461
6	146336	27.31	0.88681945319387
6	146893	27.41	0.63176835684509
6	147450	27.51	0.34968428947479
6	148007	27.61	0.052305397195695
6	148564	27.71	-0.22656890652364
6	149121	27.81	-0.45534296745835
6	149678	27.91	-0.64301737940227
6	150243	28.01	-0.79697576417033
6	150800	28.11	-0.92327526336611
6	151357	28.21	-1.0268848428069
6	151914	28.31	-1.1118807851517
6	152471	28.41	-1.1816070619506
6	153028	28.51	-1.2388068945789
6	153585	28.61	-1.2857306800289
6	154142	28.71	-1.3242245276459
6	154699	28.81	-1.3558028900945
6	155256	28.91	-1.3817081460427
6	155821	29.01	-1.4029594787171
6	156378	29.11	-1.4203929733469
6	156935	29.21	-1.4346945110272
6	157492	29.31	-1.4464267531491
6	158049	29.41	-1.4513505510322
6	158606	29.51	-1.3971227384758
6	159163	29.61	-1.2788996857299
6	159720	29.71	-1.1057747287548
6	160277	29.81	-0.88703132157519
6	160834	29.91	-0.63200048778356
6	161399	30.01	-0.34992887929945
6	161956	30.11	-0.052550599747647
6	162513	30.21	0.2263677550264
6	163070	30.31	0.45517795317025
6	163627	30.41	0.64288201021157
6	164184	30.51	0.7968647142846
6	164741	30.61	0.92318416378134
6	165298	30.71	1.0268101094169
6	165855	30.81	1.1118194777417
6	166412	30.91	1.1815567685211
6	166977	31.01	1.2387656364492
6	167534	31.11	1.2856968339921
6	168091	31.21	1.3241967621074
6	168648	31.31	1.3557801126822
6	169205	31.41	1.3816894606308
6	169762	31.51	1.4029441501705
6	170319	31.61	1.4203803985996
6	170876	31.71	1.4346841953547
6	171433	31.81	1.4464182907037
6	171990	31.91	1.451340770512
6	172555	32.01	1.397088887688
6	173112	32.11	1.2788466960817
6	173669	32.21	1.105706988989
6	174226	32.31	0.88695269654693
6	174783	32.41	0.6319143432556
6	175340	32.51	0.34983811123936
6	175897	32.61	0.052459604302157
6	176454	32.71	-0.22644240298604
6	177011	32.81	-0.45523919049693
6	177568	32.91	-0.64293224614822
6	178133	33.01	-0.7969059252499
6	178690	33.11	-0.92321797112582
6	179247	33.21	-1.0268378432144
6	179804	33.31	-1.1118422291158
6	180361	33.41	-1.181575432572
6	180918	33.51	-1.2387809474717
6	181475	33.61	-1.2857093943634
6	182032	33.71	-1.3242070659867
6	182589	33.81	-1.3557885654517
6	183146	33.91	-1.3816963948457
6	183711	34.01	-1.4029498386424
6	184268	34.11	-1.4203850651278
6	184825	34.21	-1.434688023533
6	185382	34.31	-1.4464214311442
6	185939	34.41	-1.4513444000944
6	186496	34.51	-1.3971014498232
6	187053	34.61	-1.2788663607086
5	232	1.11	36.55
5	788	1.21	36.55
5	1344	1.31	36.55
5	1900	1.41	36.55
5	2456	1.51	36.55
5	3012	1.61	36.55
5	3568	1.71	36.55
5	4124	1.81	36.55
5	4680	1.91	36.55
5	5244	2.01	36.55
5	5800	2.11	36.55
5	6356	2.21	36.55
5	6912	2.31	36.55
5	7468	2.41	36.55
5	8024	2.51	36.55
5	8580	2.61	36.55
5	9136	2.71	36.55
5	9692	2.81	36.55
5	10248	2.91	36.55
5	10812	3.01	36.55
5	11368	3.11	36.55
5	11924	3.21	36.55
5	12480	3.31	36.55
5	13036	3.41	36.55
5	13592	3.51	36.55
5	14148	3.61	36.55
5	14704	3.71	36.55
5	15260	3.81	36.55
5	15816	3.91	36.55
5	16380	4.01	36.55
5	16936	4.11	36.55
5	17492	4.21	36.55
5	18048	4.31	36.55
5	18604	4.41	36.55
5	19160	4.51	36.55
5	19716	4.61	36.55
5	20272	4.71	36.55
5	20828	4.81	36.55
5	21384	4.91	36.55
5	21949	5.01	36.55
5	22506	5.11	36.55
5	23063	5.21	36.55
5	23620	5.31	36.55
5	24177	5.41	36.55
5	24734	5.51	36.55
5	25291	5.61	36.55
5	25848	5.71	36.55
5	26405	5.81	36.55
5	26962	5.91	36.55
5	27527	6.01	36.55
5	28084	6.11	36.55
5	28641	6.21	36.55
5	29198	6.31	36.55
5	29755	6.41	36.55
5	30312	6.51	36.55
5	30869	6.61	36.55
5	31426	6.71	36.55
5	31983	6.81	36.55
5	32540	6.91	36.55
5	33105	7.01	36.55
5	33662	7.11	36.55
5	34219	7.21	36.55
5	34776	7.31	36.55
5	35333	7.41	36.55
5	35890	7.51	36.55
5	36447	7.61	36.55
5	37004	7.71	36.55
5	37561	7.81	36.55
5	38118	7.91	36.55
5	38683	8.01	36.55
5	39240	8.11	36.55
5	39797	8.21	36.55
5	40354	8.31	36.55
5	40911	8.41	36.55
5	41468	8.51	36.55
5	42025	8.61	36.55
5	42582	8.71	36.55
5	43139	8.81	36.55
5	43696	8.91	36.55
5	44261	9.01	36.55
5	44818	9.11	36.55
5	45375	9.21	36.55
5	45932	9.31	36.55
5	46489	9.41	36.55
5	47046	9.51	36.55
5	47603	9.61	36.55
5	48160	9.71	36.55
5	48717	9.81	36.55
5	49274	9.91	36.55
5	49839	10.01	36.55
5	50396	10.11	36.55
5	50953	10.21	36.55
5	51510	10.31	36.55
5	52067	10.41	36.55
5	52624	10.51	36.55
5	53181	10.61	36.55
5	53738	10.71	36.55
5	54295	10.81	36.55
5	54852	10.91	36.55
5	55417	11.01	36.55
5	55974	11.11	36.55
5	56531	11.21	36.55
5	57088	11.31	36.55
5	57645	11.41	36.55
5	58202	11.51	36.55
5	58759	11.61	36.55
5	59316	11.71	36.55
5	59873	11.81	36.55
5	60430	11.91	36.55
5	60995	12.01	36.55
5	61552	12.11	36.55
5	62109	12.21	36.55
5	62666	12.31	36.55
5	63223	12.41	36.55
5	63780	12.51	36.55
5	64337	12.61	36.55
5	64894	12.71	36.55
5	65451	12.81	36.55
5	66008	12.91	36.55
5	66573	13.01	36.55
5	67130	13.11	36.55
5	67687	13.21	36.55
5	68244	13.31	36.55
5	68801	13.41	36.55
5	69358	13.51	36.55
5	69915	13.61	36.55
5	70472	13.71	36.55
5	71029	13.81	36.55
5	71586	13.91	36.55
5	72151	14.01	36.55
5	72708	14.11	36.55
5	73265	14.21	36.55
5	73822	14.31	36.55
5	74379	14.41	36.55
5	74936	14.51	36.55
5	75493	14.61	36.55
5	76050	14.71	36.55
5	76607	14.81	36.55
5	77164	14.91	36.55
5	77729	15.01	36.55
5	78286	15.11	36.55
5	78843	15.21	36.55
5	79400	15.31	36.55
5	79957	15.41	36.55
5	80514	15.51	36.55
5	81071	15.61	36.55
5	81628	15.71	36.55
5	82185	15.81	36.55
5	82742	15.91	36.55
5	83307	16.01	36.55
5	83864	16.11	36.55
5	84421	16.21	36.55
5	84978	16.31	36.55
5	85535	16.41	36.55
5	86092	16.51	36.55
5	86649	16.61	36.55
5	87206	16.71	36.55
5	87763	16.81	36.55
5	88320	16.91	36.55
5	88885	17.01	36.55
5	89442	17.11	36.55
5	89999	17.21	36.55
5	90556	17.31	36.55
5	91113	17.41	36.55
5	91670	17.51	36.55
5	92227	17.61	36.55
5	92784	17.71	36.55
5	93341	17.81	36.55
5	93898	17.91	36.55
5	94463	18.01	36.55
5	95020	18.11	36.55
5	95577	18.21	36.55
5	96134	18.31	36.55
5	96691	18.41	36.55
5	97248	18.51	36.55
5	97805	18.61	36.55
5	98362	18.71	36.55
5	98919	18.81	36.55
5	99476	18.91	36.55
5	100041	19.01	36.55
5	100598	19.11	36.55
5	101155	19.21	36.55
5	101712	19.31	36.55
5	102269	19.41	36.55
5	102826	19.51	36.55
5	103383	19.61	36.55
5	103940	19.71	36.55
5	104497	19.81	36.55
5	105054	19.91	36.55
5	105619	20.01	36.55
5	106176	20.11	36.55
5	106733	20.21	36.55
5	107290	20.31	36.55
5	107847	20.41	36.55
5	108404	20.51	36.55
5	108961	20.61	36.55
5	109518	20.71	36.55
5	110075	20.81	36.55
5	110632	20.91	36.55
5	111197	21.01	36.55
5	111754	21.11	36.55
5	112311	21.21	36.55
5	112868	21.31	36.55
5	113425	21.41	36.55
5	113982	21.51	36.55
5	114539	21.61	36.55
5	115096	21.71	36.55
5	115653	21.81	36.55
5	116210	21.91	36.55
5	116775	22.01	36.55
5	117332	22.11	36.55
5	117889	22.21	36.55
5	118446	22.31	36.55
5	119003	22.41	36.55
5	119560	22.51	36.55
5	120117	22.61	36.55
5	120674	22.71	36.55
5	121231	22.81	36.55
5	121788	22.91	36.55
5	122353	23.01	36.55
5	122910	23.11	36.55
5	123467	23.21	36.55
5	124024	23.31	36.55
5	124581	23.41	36.55
5	125138	23.51	36.55
5	125695	23.61	36.55
5	126252	23.71	36.55
5	126809	23.81	36.55
5	127366	23.91	36.55
5	127931	24.01	36.55
5	128488	24.11	36.55
5	129045	24.21	36.55
5	129602	24.31	36.55
5	130159	24.41	36.55
5	130716	24.51	36.55
5	131273	24.61	36.55
5	131830	24.71	36.55
5	132387	24.81	36.55
5	132944	24.91	36.55
5	133509	25.01	36.55
5	134066	25.11	36.55
5	134623	25.21	36.55
5	135180	25.31	36.55
5	135737	25.41	36.55
5	136294	25.51	36.55
5	136851	25.61	36.55
5	137408	25.71	36.55
5	137965	25.81	36.55
5	138522	25.91	36.55
5	139087	26.01	36.55
5	139644	26.11	36.55
5	140201	26.21	36.55
5	140758	26.31	36.55
5	141315	26.41	36.55
5	141872	26.51	36.55
5	142429	26.61	36.55
5	142986	26.71	36.55
5	143543	26.81	36.55
5	144100	26.91	36.55
5	144665	27.01	36.55
5	145222	27.11	36.55
5	145779	27.21	36.55
5	146336	27.31	36.55
5	146893	27.41	36.55
5	147450	27.51	36.55
5	148007	27.61	36.55
5	148564	27.71	36.55
5	149121	27.81	36.55
5	149678	27.91	36.55
5	150243	28.01	36.55
5	150800	28.11	36.55
5	151357	28.21	36.55
5	151914	28.31	36.55
5	152471	28.41	36.55
5	153028	28.51	36.55
5	153585	28.61	36.55
5	154142	28.71	36.55
5	154699	28.81	36.55
5	155256	28.91	36.55
5	155821	29.01	36.55
5	156378	29.11	36.55
5	156935	29.21	36.55
5	157492	29.31	36.55
5	158049	29.41	36.55
5	158606	29.51	36.55
5	159163	29.61	36.55
5	159720	29.71	36.55
5	160277	29.81	36.55
5	160834	29.91	36.55
5	161399	30.01	36.55
5	161956	30.11	36.55
5	162513	30.21	36.55
5	163070	30.31	36.55
5	163627	30.41	36.55
5	164184	30.51	36.55
5	164741	30.61	36.55
5	165298	30.71	36.55
5	165855	30.81	36.55
5	166412	30.91	36.55
5	166977	31.01	36.55
5	167534	31.11	36.55
5	168091	31.21	36.55
5	168648	31.31	36.55
5	169205	31.41	36.55
5	169762	31.51	36.55
5	170319	31.61	36.55
5	170876	31.71	36.55
5	171433	31.81	36.55
5	171990	31.91	36.55
5	172555	32.01	36.55
5	173112	32.11	36.55
5	173669	32.21	36.55
5	174226	32.31	36.55
5	174783	32.41	36.55
5	175340	32.51	36.55
5	175897	32.61	36.55
5	176454	32.71	36.55
5	177011	32.81	36.55
5	177568	32.91	36.55
5	178133	33.01	36.55
5	178690	33.11	36.55
5	179247	33.21	36.55
5	179804	33.31	36.55
5	180361	33.41	36.55
5	180918	33.51	36.55
5	181475	33.61	36.55
5	182032	33.71	36.55
5	182589	33.81	36.55
5	183146	33.91	36.55
5	183711	34.01	36.55
5	184268	34.11	36.55
5	184825	34.21	36.55
5	185382	34.31	36.55
5	185939	34.41	36.55
5	186496	34.51	36.55
5	187053	34.61	36.55
4	232	1.11	210.1237403867
4	788	1.21	212.90151824748
4	1344	1.31	215.67929610556
4	1900	1.41	218.45707395996
4	2456	1.51	221.23485180998
4	3012	1.61	224.01262965511
4	3568	1.71	226.79040749502
4	4124	1.81	229.56818532953
4	4680	1.91	232.34596315859
4	5244	2.01	235.12374098227
4	5800	2.11	237.90151880071
4	6356	2.21	240.67929661411
4	6912	2.31	243.45707442275
4	7468	2.41	246.23485222693
4	8024	2.51	249.01263002697
4	8580	2.61	251.79040782322
4	9136	2.71	254.56818561604
4	9692	2.81	257.34596340575
4	10248	2.91	260.12374119272
4	10812	3.01	262.90151897727
4	11368	3.11	265.6792967597
4	11924	3.21	268.45707454033
4	12480	3.31	271.23485231941
4	13036	3.41	274.01263009721
4	13592	3.51	276.79040787396
4	14148	3.61	279.56818564986
4	14704	3.71	282.34596342509
4	15260	3.81	285.12374119984
4	15816	3.91	287.90151897422
4	16380	4.01	290.67929674838
4	16936	4.11	293.45707452242
4	17492	4.21	296.23485229642
4	18048	4.31	299.01263007046
4	18604	4.41	301.79040784461
4	19160	4.51	304.5681856189
4	19716	4.61	307.34596339337
4	20272	4.71	310.12374116805
4	20828	4.81	312.90151894296
4	21384	4.91	315.67929671811
4	21949	5.01	318.4570744935
4	22506	5.11	321.23485363442
4	23063	5.21	324.01285927728
4	23620	5.31	326.79186501376
4	24177	5.41	329.57309547148
4	24734	5.51	332.35810063415
4	25291	5.61	335.14861536418
4	25848	5.71	337.94632514606
4	26405	5.81	340.75263202018
4	26962	5.91	343.56868627982
4	27527	6.01	346.3954315661
4	28084	6.11	349.23364199341
4	28641	6.21	352.08395260517
4	29198	6.31	354.94688435818
4	29755	6.41	357.82286461845
4	30312	6.51	360.7122439433
4	30869	6.61	363.61528008264
4	31426	6.71	366.53192660352
4	31983	6.81	369.46165698942
4	32540	6.91	372.40348246399
4	33105	7.01	375.35598831442
4	33662	7.11	378.31737742623
4	34219	7.21	381.28551987345
4	34776	7.31	384.25800739674
4	35333	7.41	387.23221205914
4	35890	7.51	390.20542093341
4	36447	7.61	393.17513621317
4	37004	7.71	396.13929075312
4	37561	7.81	399.09618877412
4	38118	7.91	402.04443914664
4	38683	8.01	404.98290065992
4	39240	8.11	407.91063712366
4	39797	8.21	410.82688053576
4	40354	8.31	413.73100086696
4	40911	8.41	416.62248127388
4	41468	8.51	419.50089776488
4	42025	8.61	422.36590251917
4	42582	8.71	425.21721020256
4	43139	8.81	428.05458674162
4	43696	8.91	430.8778401146
4	44261	9.01	433.6868127968
4	44818	9.11	436.48137556311
4	45375	9.21	439.26142240389
4	45932	9.31	442.02686635436
4	46489	9.41	444.77763607308
4	47046	9.51	447.51367529805
4	47603	9.61	450.23517932963
4	48160	9.71	452.94300948915
4	48717	9.81	455.63865753901
4	49274	9.91	458.32414059226
4	49839	10.01	461.0018964884
4	50396	10.11	463.67468094427
4	50953	10.21	466.34546671912
4	51510	10.31	469.01718202688
4	52067	10.41	471.6923481767
4	52624	10.51	474.37303999442
4	53181	10.61	477.06095955992
4	53738	10.71	479.75750317153
4	54295	10.81	482.4638162802
4	54852	10.91	485.18083855467
4	55417	11.01	487.90934085061
4	55974	11.11	490.64995553815
4	56531	11.21	493.40320138103
4	57088	11.31	496.16950394624
4	57645	11.41	498.9492123469
4	58202	11.51	501.7426129774
4	58759	11.61	504.54994078086
4	59316	11.71	507.37138849248
4	59873	11.81	510.20711422227
4	60430	11.91	513.05723287607
4	60995	12.01	515.92153942412
4	61552	12.11	518.79918855044
4	62109	12.21	521.68875115371
4	62666	12.31	524.58830134328
4	63223	12.41	527.49550523043
4	63780	12.51	530.40771015154
4	64337	12.61	533.32203389842
4	64894	12.71	536.23558772194
4	65451	12.81	539.14582584766
4	66008	12.91	542.05064917083
4	66573	13.01	544.94833569443
4	67130	13.11	547.83747278114
4	67687	13.21	550.71690157632
4	68244	13.31	553.58567141556
4	68801	13.41	556.4430024229
4	69358	13.51	559.28825482845
4	69915	13.61	562.12090379804
4	70472	13.71	564.94051878488
4	71029	13.81	567.74674659062
4	71586	13.91	570.53929746961
4	72151	14.01	573.31793372948
4	72708	14.11	576.08246037972
4	73265	14.21	578.83271746018
4	73822	14.31	581.56857374783
4	74379	14.41	584.28992237514
4	74936	14.51	586.99682987995
4	75493	14.61	589.68991156829
4	76050	14.71	592.37041117478
4	76607	14.81	595.04011451675
4	77164	14.91	597.70125507842
4	77729	15.01	600.35641946188
4	78286	15.11	603.0084535855
4	78843	15.21	605.66030032304
4	79400	15.31	608.31466882771
4	79957	15.41	610.97380083526
4	80514	15.51	613.63953534981
4	81071	15.61	616.31338099526
4	81628	15.71	618.99657536863
4	82185	15.81	621.69013373058
4	82742	15.91	624.39488894844
4	83307	16.01	627.1115242635
4	83864	16.11	629.84060017161
4	84421	16.21	632.58257647459
4	84978	16.31	635.33783037005
4	85535	16.41	638.10667129144
4	86092	16.51	640.88935308196
4	86649	16.61	643.68608398144
4	87206	16.71	646.49703481906
4	87763	16.81	649.32234573427
4	88320	16.91	652.16213067574
4	88885	17.01	655.0162931395
4	89442	17.11	657.88413475528
4	89999	17.21	660.76434186183
4	90556	17.31	663.65507516232
4	91113	17.41	666.55406214471
4	91670	17.51	669.45868973441
4	92227	17.61	672.36609646404
4	92784	17.71	675.27335668849
4	93341	17.81	678.17781814361
4	93898	17.91	681.07728885757
4	94463	18.01	683.96997064999
4	95020	18.11	686.85438838667
4	95577	18.21	689.72933194377
4	96134	18.31	692.59380859826
4	96691	18.41	695.44700397148
4	97248	18.51	698.2882499893
4	97805	18.61	701.11699859823
4	98362	18.71	703.93280020351
4	98919	18.81	706.73528598086
4	99476	18.91	709.52415336591
4	100041	19.01	712.29915415049
4	100598	19.11	715.06008471744
4	101155	19.21	717.80677802977
4	101712	19.31	720.53909705899
4	102269	19.41	723.25693031272
4	102826	19.51	725.96036295687
4	103383	19.61	728.65006252842
4	103940	19.71	731.32731676154
4	104497	19.81	733.99394511595
4	105054	19.91	736.65220561829
4	105619	20.01	739.30470150781
4	106176	20.11	741.95428846276
4	106733	20.21	744.60389847511
4	107290	20.31	747.25620484098
4	107847	20.41	749.91341793139
4	108404	20.51	752.57735102043
4	108961	20.61	755.24949162441
4	109518	20.71	757.93106002484
4	110075	20.81	760.62305727756
4	110632	20.91	763.32630459701
4	111197	21.01	766.04147566509
4	111754	21.11	768.76912313559
4	112311	21.21	771.5097003771
4	112868	21.31	774.26357930978
4	113425	21.41	777.0310650377
4	113982	21.51	779.81240785246
4	114539	21.61	782.60781308035
4	115096	21.71	785.41744916046
4	115653	21.81	788.24145427148
4	116210	21.91	791.07994081943
4	116775	22.01	793.93281951209
4	117332	22.11	796.79941138974
4	117889	22.21	799.67841909217
4	118446	22.31	802.5680157923
4	119003	22.41	805.46593808117
4	119560	22.51	808.36957906224
4	120117	22.61	811.27608090099
4	120674	22.71	814.18251395013
4	121231	22.81	817.08621270459
4	121788	22.91	819.98497360956
4	122353	23.01	822.8769889826
4	122910	23.11	825.76077589449
4	123467	23.21	828.63511782675
4	124024	23.31	831.49901681054
4	124581	23.41	834.3516541638
4	125138	23.51	837.19235828209
4	125695	23.61	840.02057821588
4	126252	23.71	842.83586199461
4	126809	23.81	845.63783884505
4	127366	23.91	848.42620460399
4	127931	24.01	851.20070975164
4	128488	24.11	853.96114959489
4	129045	24.21	856.70735621409
4	129602	24.31	859.43919185663
4	130159	24.41	862.15654445495
4	130716	24.51	864.85950176963
4	131273	24.61	867.5487385213
4	131830	24.71	870.22554849784
4	132387	24.81	872.89175579216
4	132944	24.91	875.54962181569
4	133509	25.01	878.20175210762
4	134066	25.11	880.85100370209
4	134623	25.21	883.50030711634
4	135180	25.31	886.15233074642
4	135737	25.41	888.80928067645
4	136294	25.51	891.47296666377
4	136851	25.61	894.14487333973
4	137408	25.71	896.82621861915
4	137965	25.81	899.51800161637
4	138522	25.91	902.22104195314
4	139087	26.01	904.93601200478
4	139644	26.11	907.66346335323
4	140201	26.21	910.40384848779
4	140758	26.31	913.15753860732
4	141315	26.41	915.92483822413
4	141872	26.51	918.70599714441
4	142429	26.61	921.50122029623
4	142986	26.71	924.31067579198
4	143543	26.81	927.13450154238
4	144100	26.91	929.97280974058
4	144665	27.01	932.82551205761
4	145222	27.11	935.69193219969
4	145779	27.21	938.57077505322
4	146336	27.31	941.46021551064
4	146893	27.41	944.35799141924
4	147450	27.51	947.2614967361
4	148007	27.61	950.16787413005
4	148564	27.71	953.07419340669
4	149121	27.81	955.97778724282
4	149678	27.91	958.87645049295
4	150243	28.01	961.76837416973
4	150800	28.11	964.65207427348
4	151357	28.21	967.52633340758
4	151914	28.31	970.39015288276
4	152471	28.41	973.24271342599
4	153028	28.51	976.08334294806
4	153585	28.61	978.91149010167
4	154142	28.71	981.72670259006
4	154699	28.81	984.52860937232
4	155256	28.91	987.31690606566
4	155821	29.01	990.09134297021
4	156378	29.11	992.85171524508
4	156935	29.21	995.59785484941
4	157492	29.31	998.32962393114
4	158049	29.41	1001.0469103437
4	158606	29.51	1003.7498022053
4	159163	29.61	1006.4389752257
4	159720	29.71	1009.1157240266
4	160277	29.81	1011.781873339
4	160834	29.91	1014.4396850406
4	161399	30.01	1017.0917649873
4	161956	30.11	1019.7409704
4	162513	30.21	1022.3902315931
4	163070	30.31	1025.0422162877
4	163627	30.41	1027.6991299778
4	164184	30.51	1030.3627819365
4	164741	30.61	1033.0346563977
4	165298	30.71	1035.7159709505
4	165855	30.81	1038.4077244419
4	166412	30.91	1041.1107362743
4	166977	31.01	1043.825678643
4	167534	31.11	1046.5531029825
4	168091	31.21	1049.2934616611
4	168648	31.31	1052.0471257781
4	169205	31.41	1054.8143997644
4	169762	31.51	1057.5955333595
4	170319	31.61	1060.3907314365
4	170876	31.71	1063.2001620628
4	171433	31.81	1066.0239631123
4	171990	31.91	1068.8622467488
4	172555	32.01	1071.7149247759
4	173112	32.11	1074.5813212671
4	173669	32.21	1077.4601414182
4	174226	32.31	1080.3495603584
4	174783	32.41	1083.2473161079
4	175340	32.51	1086.1508027415
4	175897	32.61	1089.0571629973
4	176454	32.71	1091.9634666055
4	177011	32.81	1094.8670459926
4	177568	32.91	1097.765695794
4	178133	33.01	1100.6576068426
4	178690	33.11	1103.5412949914
4	179247	33.21	1106.4155427227
4	179804	33.31	1109.2793512482
4	180361	33.41	1112.1319012133
4	180918	33.51	1114.9725204622
4	181475	33.61	1117.8006575927
4	182032	33.71	1120.6158602632
4	182589	33.81	1123.4177573958
4	183146	33.91	1126.2060445776
4	183711	34.01	1128.9804720839
4	184268	34.11	1131.7408350534
4	184825	34.21	1134.4869654286
4	185382	34.31	1137.2187253438
4	185939	34.41	1139.9360026415
4	186496	34.51	1142.6388854889
4	187053	34.61	1145.3280497324
3	232	1.11	27.777778619612
3	788	1.21	27.777778599967
3	1344	1.31	27.777778569105
3	1900	1.41	27.777778529595
3	2456	1.51	27.777778483698
3	3012	1.61	27.777778433385
3	3568	1.71	27.777778380352
3	4124	1.81	27.777778326039
3	4680	1.91	27.77777827165
3	5244	2.01	27.777778218173
3	5800	2.11	27.777778166406
3	6356	2.21	27.777778116967
3	6912	2.31	27.777778070327
3	7468	2.41	27.777778026819
3	8024	2.51	27.77777798666
3	8580	2.61	27.77777794997
3	9136	2.71	27.777777916782
3	9692	2.81	27.777777887063
3	10248	2.91	27.777777860724
3	10812	3.01	27.777777837628
3	11368	3.11	27.777777817609
3	11924	3.21	27.777777800471
3	12480	3.31	27.777777786005
3	13036	3.41	27.777777773991
3	13592	3.51	27.777777764203
3	14148	3.61	27.777777756416
3	14704	3.71	27.777777750412
3	15260	3.81	27.777777745977
3	15816	3.91	27.77777774291
3	16380	4.01	27.777777741018
3	16936	4.11	27.777777740126
3	17492	4.21	27.77777774007
3	18048	4.31	27.7777777407
3	18604	4.41	27.777777741882
3	19160	4.51	27.777777743495
3	19716	4.61	27.777777745434
3	20272	4.71	27.777777747604
3	20828	4.81	27.777777749925
3	21384	4.91	27.777777752329
3	21949	5.01	27.777777754758
3	22506	5.11	27.777846021452
3	23063	5.21	27.782059596653
3	23620	5.31	27.795775862036
3	24177	5.41	27.823056285431
3	24734	5.51	27.866721940626
3	25291	5.61	27.928063782047
3	25848	5.71	28.005327711868
3	26405	5.81	28.095658800357
3	26962	5.91	28.196709510244
3	27527	6.01	28.30655404332
3	28084	6.11	28.423612574297
3	28641	6.21	28.54658909619
3	29198	6.31	28.674420431867
3	29755	6.41	28.80623440578
3	30312	6.51	28.941313946553
3	30869	6.61	29.078388981218
3	31426	6.71	29.213351897492
3	31983	6.81	29.341385131305
3	32540	6.91	29.457981732945
3	33105	7.01	29.559024895864
3	33662	7.11	29.640856051762
3	34219	7.21	29.700331349918
3	34776	7.31	29.734866440411
3	35333	7.41	29.742492528104
3	35890	7.51	29.72320356612
3	36447	7.61	29.680432143932
3	37004	7.71	29.618396925437
3	37561	7.81	29.540558684394
3	38118	7.91	29.449756460671
3	38683	8.01	29.348319255796
3	39240	8.11	29.238157662213
3	39797	8.21	29.120839031188
3	40354	8.31	28.997649136664
3	40911	8.41	28.86964276111
3	41468	8.51	28.737685193533
3	42025	8.61	28.602486272297
3	42582	8.71	28.464628312097
3	43139	8.81	28.324589013804
3	43696	8.91	28.182760258515
3	44261	9.01	28.039463525222
3	44818	9.11	27.894962538668
3	45375	9.21	27.749473644999
3	45932	9.31	27.603174323409
3	46489	9.41	27.456210168651
3	47046	9.51	27.308798307138
3	47603	9.61	27.165456941051
3	48160	9.71	27.033088438825
3	48717	9.81	26.917629526736
3	49274	9.91	26.823966096352
3	49839	10.01	26.755942052805
3	50396	10.11	26.716381687291
3	50953	10.21	26.707072901132
3	51510	10.31	26.725876201723
3	52067	10.41	26.768249212414
3	52624	10.51	26.829957594714
3	53181	10.61	26.90752771624
3	53738	10.71	26.998109988574
3	54295	10.81	27.099366756701
3	54852	10.91	27.209380329303
3	55417	11.01	27.326577531569
3	55974	11.11	27.449667812217
3	56531	11.21	27.577592469696
3	57088	11.31	27.709482999991
3	57645	11.41	27.844626927306
3	58202	11.51	27.982439773336
3	58759	11.61	28.122442062297
3	59316	11.71	28.264240457043
3	59873	11.81	28.407512284116
3	60430	11.91	28.5515861915
3	60995	12.01	28.691427297144
3	61552	12.11	28.820647386679
3	62109	12.21	28.933709262078
3	62666	12.31	29.025954034973
3	63223	12.41	29.093614170539
3	63780	12.51	29.133813231597
3	64337	12.61	29.144595455085
3	64894	12.71	29.127327372936
3	65451	12.81	29.086213776084
3	66008	12.91	29.025538551786
3	66573	13.01	28.948815979671
3	67130	13.11	28.858928993054
3	67687	13.21	28.758242601384
3	68244	13.31	28.648696936139
3	68801	13.41	28.531883580877
3	69358	13.51	28.409108188466
3	69915	13.61	28.281441849017
3	70472	13.71	28.14976322948
3	71029	13.81	28.014793142794
3	71586	13.91	27.877122906629
3	72151	14.01	27.737237607429
3	72708	14.11	27.595535185033
3	73265	14.21	27.452342088714
3	73822	14.31	27.307926120577
3	74379	14.41	27.162546024449
3	74936	14.51	27.019330871672
3	75493	14.61	26.884559196285
3	76050	14.71	26.764258967301
3	76607	14.81	26.663521929862
3	77164	14.91	26.586493202078
3	77729	15.01	26.536374688625
3	78286	15.11	26.515419708568
3	78843	15.21	26.523668857685
3	79400	15.31	26.557383788157
3	79957	15.41	26.611989529068
3	80514	15.51	26.683733010807
3	81071	15.61	26.769535409097
3	81628	15.71	26.866871015679
3	82185	15.81	26.973667870074
3	82742	15.91	27.088226243028
3	83307	16.01	27.209151764536
3	83864	16.11	27.335300565535
3	84421	16.21	27.465734274985
3	84978	16.31	27.599683101797
3	85535	16.41	27.736515549161
3	86092	16.51	27.875713569743
3	86649	16.61	28.016852184292
3	87206	16.71	28.159582761803
3	87763	16.81	28.303619303423
3	88320	16.91	28.448676617794
3	88885	17.01	28.590971447913
3	89442	17.11	28.724006207991
3	89999	17.21	28.841930784337
3	90556	17.31	28.939810791426
3	91113	17.41	29.013638834762
3	91670	17.51	29.060332154734
3	92227	17.61	29.077746642843
3	92784	17.71	29.066350790361
3	93341	17.81	29.030054467132
3	93898	17.91	28.973331085061
3	94463	18.01	28.899850399997
3	95020	18.11	28.812622889912
3	95577	18.21	28.714118195293
3	96134	18.31	28.606362281514
3	96691	18.41	28.491017145825
3	97248	18.51	28.369446204845
3	97805	18.61	28.242767935079
3	98362	18.71	28.111899876827
3	98919	18.81	27.977594732713
3	99476	18.91	27.840469981056
3	100041	19.01	27.701032169144
3	100598	19.11	27.559696842186
3	101155	19.21	27.416804891984
3	101712	19.31	27.272635968552
3	102269	19.41	27.127465418657
3	102826	19.51	26.984833896344
3	103383	19.61	26.851159734065
3	103940	19.71	26.732358896103
3	104497	19.81	26.633424036685
3	105054	19.91	26.558413554113
3	105619	20.01	26.510454337265
3	106176	20.11	26.4917309481
3	106733	20.21	26.50196337238
3	107290	20.31	26.53730527926
3	107847	20.41	26.593245707503
3	108404	20.51	26.666084097724
3	108961	20.61	26.752784702327
3	109518	20.71	26.85085715093
3	110075	20.81	26.958258472424
3	110632	20.91	27.073312718935
3	111197	21.01	27.194645029473
3	111754	21.11	27.321127539161
3	112311	21.21	27.451835005966
3	112868	21.31	27.58600840916
3	113425	21.41	27.723025087377
3	113982	21.51	27.862374241425
3	114539	21.61	28.003636838057
3	115096	21.71	28.146469124058
3	115653	21.81	28.290589102065
3	116210	21.91	28.435718002991
3	116775	22.01	28.578225822974
3	117332	22.11	28.711663912643
3	117889	22.21	28.83014072939
3	118446	22.31	28.928685230703
3	119003	22.41	29.003257937223
3	119560	22.51	29.050748330675
3	120117	22.61	29.068986857173
3	120674	22.71	29.058323427182
3	121231	22.81	29.022627945499
3	121788	22.91	28.966397462768
3	122353	23.01	28.89332112684
3	122910	23.11	28.806425323882
3	123467	23.21	28.70819274464
3	124024	23.31	28.600660060247
3	124581	23.41	28.485498050406
3	125138	23.51	28.364077336405
3	125695	23.61	28.237522305085
3	126252	23.71	28.106755345282
3	126809	23.81	27.97253313711
3	127366	23.91	27.835476421811
3	127931	24.01	27.696094423411
3	128488	24.11	27.554804882971
3	129045	24.21	27.411950493662
3	129602	24.31	27.267812383245
3	130159	24.41	27.122668052051
3	130716	24.51	26.980114349492
3	131273	24.61	26.846588675637
3	131830	24.71	26.727991635756
3	132387	24.81	26.629302292308
3	132944	24.91	26.554567145367
3	133509	25.01	26.506902788277
3	134066	25.11	26.488484344384
3	134623	25.21	26.498987841018
3	135180	25.31	26.534552121643
3	135737	25.41	26.590674973809
3	136294	25.51	26.663663015186
3	136851	25.61	26.75048638586
3	137408	25.71	26.8486595454
3	137965	25.81	26.956143484941
3	138522	25.91	27.071265507027
3	139087	26.01	27.192653417141
3	139644	26.11	27.319181537848
3	140201	26.21	27.449926421574
3	140758	26.31	27.584130519676
3	141315	26.41	27.721172378408
3	141872	26.51	27.86054218925
3	142429	26.61	28.001821731647
3	142986	26.71	28.144667919078
3	143543	26.81	28.288799301099
3	144100	26.91	28.433937906563
3	144665	27.01	28.576474582405
3	145222	27.11	28.709967753931
3	145779	27.21	28.828520179047
3	146336	27.31	28.927155771518
3	146893	27.41	29.001830636677
3	147450	27.51	29.049430435655
3	148007	27.61	29.067782111948
3	148564	27.71	29.057219263808
3	149121	27.81	29.021606294275
3	149678	27.91	28.965443500247
3	150243	28.01	28.892422692631
3	150800	28.11	28.805572442229
3	151357	28.21	28.707377231949
3	151914	28.31	28.599875203121
3	152471	28.41	28.48473834152
3	153028	28.51	28.363338257835
3	153585	28.61	28.23680015056
3	154142	28.71	28.106047074368
3	154699	28.81	27.971836255593
3	155256	28.91	27.834788883566
3	155821	29.01	27.695414549904
3	156378	29.11	27.554131297218
3	156935	29.21	27.411282066058
3	157492	29.31	27.267148187119
3	158049	29.41	27.122007456828
3	158606	29.51	26.979464462325
3	159163	29.61	26.84595922909
3	159720	29.71	26.727390247301
3	160277	29.81	26.628734707679
3	160834	29.91	26.554037471766
3	161399	30.01	26.506413715074
3	161956	30.11	26.488037261118
3	162513	30.21	26.498578083731
3	163070	30.31	26.534172984659
3	163627	30.41	26.590320956139
3	164184	30.51	26.663329604102
3	164741	30.61	26.750169879354
3	165298	30.71	26.848356906536
3	165855	30.81	26.955852222374
3	166412	30.91	27.070983576984
3	166977	31.01	27.19237914302
3	167534	31.11	27.318913544249
3	168091	31.21	27.449663580191
3	168648	31.31	27.583871904903
3	169205	31.41	27.720917230929
3	169762	31.51	27.860289886159
3	170319	31.61	28.001571761945
3	170876	31.71	28.144419863567
3	171433	31.81	28.288552815892
3	171990	31.91	28.433692757653
3	172555	32.01	28.576233407281
3	173112	32.11	28.709734164377
3	173669	32.21	28.828297001933
3	174226	32.31	28.926945139104
3	174783	32.41	29.001634073159
3	175340	32.51	29.049248939068
3	175897	32.61	29.067616197954
3	176454	32.71	29.057067201598
3	177011	32.81	29.021465595353
3	177568	32.91	28.965312123179
3	178133	33.01	28.89229896273
3	178690	33.11	28.805454985668
3	179247	33.21	28.707264921712
3	179804	33.31	28.599767114663
3	180361	33.41	28.484633716391
3	180918	33.51	28.363236473841
3	181475	33.61	28.236700697287
3	182032	33.71	28.105949533098
3	182589	33.81	27.971740282831
3	183146	33.91	27.834694197528
3	183711	34.01	27.695320919427
3	184268	34.11	27.554038532669
3	184825	34.21	27.411190011872
3	185382	34.31	27.267056715677
3	185939	34.41	27.12191648129
3	186496	34.51	26.979374961472
3	187053	34.61	26.845872543266
1	232	1.11	0
1	788	1.21	0
1	1344	1.31	0
1	1900	1.41	0
1	2456	1.51	0
1	3012	1.61	0
1	3568	1.71	0
1	4124	1.81	0
1	4680	1.91	0
1	5244	2.01	0
1	5800	2.11	0
1	6356	2.21	0
1	6912	2.31	0
1	7468	2.41	0
1	8024	2.51	0
1	8580	2.61	0
1	9136	2.71	0
1	9692	2.81	0
1	10248	2.91	0
1	10812	3.01	0
1	11368	3.11	0
1	11924	3.21	0
1	12480	3.31	0
1	13036	3.41	0
1	13592	3.51	0
1	14148	3.61	0
1	14704	3.71	0
1	15260	3.81	0
1	15816	3.91	0
1	16380	4.01	0
1	16936	4.11	0
1	17492	4.21	0
1	18048	4.31	0
1	18604	4.41	0
1	19160	4.51	0
1	19716	4.61	0
1	20272	4.71	0
1	20828	4.81	0
1	21384	4.91	0
1	21949	5.01	0
1	22506	5.11	0
1	23063	5.21	0
1	23620	5.31	0
1	24177	5.41	0
1	24734	5.51	0
1	25291	5.61	0
1	25848	5.71	0
1	26405	5.81	0
1	26962	5.91	0
1	27527	6.01	0
1	28084	6.11	0
1	28641	6.21	0
1	29198	6.31	0
1	29755	6.41	0
1	30312	6.51	0
1	30869	6.61	0
1	31426	6.71	0
1	31983	6.81	0
1	32540	6.91	0
1	33105	7.01	0
1	33662	7.11	0
1	34219	7.21	0
1	34776	7.31	0
1	35333	7.41	0
1	35890	7.51	0
1	36447	7.61	0
1	37004	7.71	0
1	37561	7.81	0
1	38118	7.91	0
1	38683	8.01	0
1	39240	8.11	0
1	39797	8.21	0
1	40354	8.31	0
1	40911	8.41	0
1	41468	8.51	0
1	42025	8.61	0
1	42582	8.71	0
1	43139	8.81	0
1	43696	8.91	0
1	44261	9.01	0
1	44818	9.11	0
1	45375	9.21	0
1	45932	9.31	0
1	46489	9.41	0
1	47046	9.51	0
1	47603	9.61	0
1	48160	9.71	0
1	48717	9.81	0
1	49274	9.91	0
1	49839	10.01	0
1	50396	10.11	0
1	50953	10.21	0
1	51510	10.31	0
1	52067	10.41	0
1	52624	10.51	0
1	53181	10.61	0
1	53738	10.71	0
1	54295	10.81	0
1	54852	10.91	0
1	55417	11.01	0
1	55974	11.11	0
1	56531	11.21	0
1	57088	11.31	0
1	57645	11.41	0
1	58202	11.51	0
1	58759	11.61	0
1	59316	11.71	0
1	59873	11.81	0
1	60430	11.91	0
1	60995	12.01	0
1	61552	12.11	0
1	62109	12.21	0
1	62666	12.31	0
1	63223	12.41	0
1	63780	12.51	0
1	64337	12.61	0
1	64894	12.71	0
1	65451	12.81	0
1	66008	12.91	0
1	66573	13.01	0
1	67130	13.11	0
1	67687	13.21	0
1	68244	13.31	0
1	68801	13.41	0
1	69358	13.51	0
1	69915	13.61	0
1	70472	13.71	0
1	71029	13.81	0
1	71586	13.91	0
1	72151	14.01	0
1	72708	14.11	0
1	73265	14.21	0
1	73822	14.31	0
1	74379	14.41	0
1	74936	14.51	0
1	75493	14.61	0
1	76050	14.71	0
1	76607	14.81	0
1	77164	14.91	0
1	77729	15.01	0
1	78286	15.11	0
1	78843	15.21	0
1	79400	15.31	0
1	79957	15.41	0
1	80514	15.51	0
1	81071	15.61	0
1	81628	15.71	0
1	82185	15.81	0
1	82742	15.91	0
1	83307	16.01	0
1	83864	16.11	0
1	84421	16.21	0
1	84978	16.31	0
1	85535	16.41	0
1	86092	16.51	0
1	86649	16.61	0
1	87206	16.71	0
1	87763	16.81	0
1	88320	16.91	0
1	88885	17.01	0
1	89442	17.11	0
1	89999	17.21	0
1	90556	17.31	0
1	91113	17.41	0
1	91670	17.51	0
1	92227	17.61	0
1	92784	17.71	0
1	93341	17.81	0
1	93898	17.91	0
1	94463	18.01	0
1	95020	18.11	0
1	95577	18.21	0
1	96134	18.31	0
1	96691	18.41	0
1	97248	18.51	0
1	97805	18.61	0
1	98362	18.71	0
1	98919	18.81	0
1	99476	18.91	0
1	100041	19.01	0
1	100598	19.11	0
1	101155	19.21	0
1	101712	19.31	0
1	102269	19.41	0
1	102826	19.51	0
1	103383	19.61	0
1	103940	19.71	0
1	104497	19.81	0
1	105054	19.91	0
1	105619	20.01	0
1	106176	20.11	0
1	106733	20.21	0
1	107290	20.31	0
1	107847	20.41	0
1	108404	20.51	0
1	108961	20.61	0
1	109518	20.71	0
1	110075	20.81	0
1	110632	20.91	0
1	111197	21.01	0
1	111754	21.11	0
1	112311	21.21	0
1	112868	21.31	0
1	113425	21.41	0
1	113982	21.51	0
1	114539	21.61	0
1	115096	21.71	0
1	115653	21.81	0
1	116210	21.91	0
1	116775	22.01	0
1	117332	22.11	0
1	117889	22.21	0
1	118446	22.31	0
1	119003	22.41	0
1	119560	22.51	0
1	120117	22.61	0
1	120674	22.71	0
1	121231	22.81	0
1	121788	22.91	0
1	122353	23.01	0
1	122910	23.11	0
1	123467	23.21	0
1	124024	23.31	0
1	124581	23.41	0
1	125138	23.51	0
1	125695	23.61	0
1	126252	23.71	0
1	126809	23.81	0
1	127366	23.91	0
1	127931	24.01	0
1	128488	24.11	0
1	129045	24.21	0
1	129602	24.31	0
1	130159	24.41	0
1	130716	24.51	0
1	131273	24.61	0
1	131830	24.71	0
1	132387	24.81	0
1	132944	24.91	0
1	133509	25.01	0
1	134066	25.11	0
1	134623	25.21	0
1	135180	25.31	0
1	135737	25.41	0
1	136294	25.51	0
1	136851	25.61	0
1	137408	25.71	0
1	137965	25.81	0
1	138522	25.91	0
1	139087	26.01	0
1	139644	26.11	0
1	140201	26.21	0
1	140758	26.31	0
1	141315	26.41	0
1	141872	26.51	0
1	142429	26.61	0
1	142986	26.71	0
1	143543	26.81	0
1	144100	26.91	0
1	144665	27.01	0
1	145222	27.11	0
1	145779	27.21	0
1	146336	27.31	0
1	146893	27.41	0
1	147450	27.51	0
1	148007	27.61	0
1	148564	27.71	0
1	149121	27.81	0
1	149678	27.91	0
1	150243	28.01	0
1	150800	28.11	0
1	151357	28.21	0
1	151914	28.31	0
1	152471	28.41	0
1	153028	28.51	0
1	153585	28.61	0
1	154142	28.71	0
1	154699	28.81	0
1	155256	28.91	0
1	155821	29.01	0
1	156378	29.11	0
1	156935	29.21	0
1	157492	29.31	0
1	158049	29.41	0
1	158606	29.51	0
1	159163	29.61	0
1	159720	29.71	0
1	160277	29.81	0
1	160834	29.91	0
1	161399	30.01	0
1	161956	30.11	0
1	162513	30.21	0
1	163070	30.31	0
1	163627	30.41	0
1	164184	30.51	0
1	164741	30.61	0
1	165298	30.71	0
1	165855	30.81	0
1	166412	30.91	0
1	166977	31.01	0
1	167534	31.11	0
1	168091	31.21	0
1	168648	31.31	0
1	169205	31.41	0
1	169762	31.51	0
1	170319	31.61	0
1	170876	31.71	0
1	171433	31.81	0
1	171990	31.91	0
1	172555	32.01	0
1	173112	32.11	0
1	173669	32.21	0
1	174226	32.31	0
1	174783	32.41	0
1	175340	32.51	0
1	175897	32.61	0
1	176454	32.71	0
1	177011	32.81	0
1	177568	32.91	0
1	178133	33.01	0
1	178690	33.11	0
1	179247	33.21	0
1	179804	33.31	0
1	180361	33.41	0
1	180918	33.51	0
1	181475	33.61	0
1	182032	33.71	0
1	182589	33.81	0
1	183146	33.91	0
1	183711	34.01	0
1	184268	34.11	0
1	184825	34.21	0
1	185382	34.31	0
1	185939	34.41	0
1	186496	34.51	0
1	187053	34.61	0
0	232	1.11	-1
0	788	1.21	-1
0	1344	1.31	-1
0	1900	1.41	-1
0	2456	1.51	-1
0	3012	1.61	-1
0	3568	1.71	-1
0	4124	1.81	-1
0	4680	1.91	-1
0	5244	2.01	-1
0	5800	2.11	-1
0	6356	2.21	-1
0	6912	2.31	-1
0	7468	2.41	-1
0	8024	2.51	-1
0	8580	2.61	-1
0	9136	2.71	-1
0	9692	2.81	-1
0	10248	2.91	-1
0	10812	3.01	-1
0	11368	3.11	-1
0	11924	3.21	-1
0	12480	3.31	-1
0	13036	3.41	-1
0	13592	3.51	-1
0	14148	3.61	-1
0	14704	3.71	-1
0	15260	3.81	-1
0	15816	3.91	-1
0	16380	4.01	-1
0	16936	4.11	-1
0	17492	4.21	-1
0	18048	4.31	-1
0	18604	4.41	-1
0	19160	4.51	-1
0	19716	4.61	-1
0	20272	4.71	-1
0	20828	4.81	-1
0	21384	4.91	-1
0	21949	5.01	-1
0	22506	5.11	-1
0	23063	5.21	-1
0	23620	5.31	-1
0	24177	5.41	-1
0	24734	5.51	-1
0	25291	5.61	-1
0	25848	5.71	-1
0	26405	5.81	-1
0	26962	5.91	-1
0	27527	6.01	-1
0	28084	6.11	-1
0	28641	6.21	-1
0	29198	6.31	-1
0	29755	6.41	-1
0	30312	6.51	-1
0	30869	6.61	-1
0	31426	6.71	-1
0	31983	6.81	-1
0	32540	6.91	-1
0	33105	7.01	-1
0	33662	7.11	-1
0	34219	7.21	-1
0	34776	7.31	-1
0	35333	7.41	-1
0	35890	7.51	-1
0	36447	7.61	-1
0	37004	7.71	-1
0	37561	7.81	-1
0	38118	7.91	-1
0	38683	8.01	-1
0	39240	8.11	-1
0	39797	8.21	-1
0	40354	8.31	-1
0	40911	8.41	-1
0	41468	8.51	-1
0	42025	8.61	-1
0	42582	8.71	-1
0	43139	8.81	-1
0	43696	8.91	-1
0	44261	9.01	-1
0	44818	9.11	-1
0	45375	9.21	-1
0	45932	9.31	-1
0	46489	9.41	-1
0	47046	9.51	-1
0	47603	9.61	-1
0	48160	9.71	-1
0	48717	9.81	-1
0	49274	9.91	-1
0	49839	10.01	-1
0	50396	10.11	-1
0	50953	10.21	-1
0	51510	10.31	-1
0	52067	10.41	-1
0	52624	10.51	-1
0	53181	10.61	-1
0	53738	10.71	-1
0	54295	10.81	-1
0	54852	10.91	-1
0	55417	11.01	-1
0	55974	11.11	-1
0	56531	11.21	-1
0	57088	11.31	-1
0	57645	11.41	-1
0	58202	11.51	-1
0	58759	11.61	-1
0	59316	11.71	-1
0	59873	11.81	-1
0	60430	11.91	-1
0	60995	12.01	-1
0	61552	12.11	-1
0	62109	12.21	-1
0	62666	12.31	-1
0	63223	12.41	-1
0	63780	12.51	-1
0	64337	12.61	-1
0	64894	12.71	-1
0	65451	12.81	-1
0	66008	12.91	-1
0	66573	13.01	-1
0	67130	13.11	-1
0	67687	13.21	-1
0	68244	13.31	-1
0	68801	13.41	-1
0	69358	13.51	-1
0	69915	13.61	-1
0	70472	13.71	-1
0	71029	13.81	-1
0	71586	13.91	-1
0	72151	14.01	-1
0	72708	14.11	-1
0	73265	14.21	-1
0	73822	14.31	-1
0	74379	14.41	-1
0	74936	14.51	-1
0	75493	14.61	-1
0	76050	14.71	-1
0	76607	14.81	-1
0	77164	14.91	-1
0	77729	15.01	-1
0	78286	15.11	-1
0	78843	15.21	-1
0	79400	15.31	-1
0	79957	15.41	-1
0	80514	15.51	-1
0	81071	15.61	-1
0	81628	15.71	-1
0	82185	15.81	-1
0	82742	15.91	-1
0	83307	16.01	-1
0	83864	16.11	-1
0	84421	16.21	-1
0	84978	16.31	-1
0	85535	16.41	-1
0	86092	16.51	-1
0	86649	16.61	-1
0	87206	16.71	-1
0	87763	16.81	-1
0	88320	16.91	-1
0	88885	17.01	-1
0	89442	17.11	-1
0	89999	17.21	-1
0	90556	17.31	-1
0	91113	17.41	-1
0	91670	17.51	-1
0	92227	17.61	-1
0	92784	17.71	-1
0	93341	17.81	-1
0	93898	17.91	-1
0	94463	18.01	-1
0	95020	18.11	-1
0	95577	18.21	-1
0	96134	18.31	-1
0	96691	18.41	-1
0	97248	18.51	-1
0	97805	18.61	-1
0	98362	18.71	-1
0	98919	18.81	-1
0	99476	18.91	-1
0	100041	19.01	-1
0	100598	19.11	-1
0	101155	19.21	-1
0	101712	19.31	-1
0	102269	19.41	-1
0	102826	19.51	-1
0	103383	19.61	-1
0	103940	19.71	-1
0	104497	19.81	-1
0	105054	19.91	-1
0	105619	20.01	-1
0	106176	20.11	-1
0	106733	20.21	-1
0	107290	20.31	-1
0	107847	20.41	-1
0	108404	20.51	-1
0	108961	20.61	-1
0	109518	20.71	-1
0	110075	20.81	-1
0	110632	20.91	-1
0	111197	21.01	-1
0	111754	21.11	-1
0	112311	21.21	-1
0	112868	21.31	-1
0	113425	21.41	-1
0	113982	21.51	-1
0	114539	21.61	-1
0	115096	21.71	-1
0	115653	21.81	-1
0	116210	21.91	-1
0	116775	22.01	-1
0	117332	22.11	-1
0	117889	22.21	-1
0	118446	22.31	-1
0	119003	22.41	-1
0	119560	22.51	-1
0	120117	22.61	-1
0	120674	22.71	-1
0	121231	22.81	-1
0	121788	22.91	-1
0	122353	23.01	-1
0	122910	23.11	-1
0	123467	23.21	-1
0	124024	23.31	-1
0	124581	23.41	-1
0	125138	23.51	-1
0	125695	23.61	-1
0	126252	23.71	-1
0	126809	23.81	-1
0	127366	23.91	-1
0	127931	24.01	-1
0	128488	24.11	-1
0	129045	24.21	-1
0	129602	24.31	-1
0	130159	24.41	-1
0	130716	24.51	-1
0	131273	24.61	-1
0	131830	24.71	-1
0	132387	24.81	-1
0	132944	24.91	-1
0	133509	25.01	-1
0	134066	25.11	-1
0	134623	25.21	-1
0	135180	25.31	-1
0	135737	25.41	-1
0	136294	25.51	-1
0	136851	25.61	-1
0	137408	25.71	-1
0	137965	25.81	-1
0	138522	25.91	-1
0	139087	26.01	-1
0	139644	26.11	-1
0	140201	26.21	-1
0	140758	26.31	-1
0	141315	26.41	-1
0	141872	26.51	-1
0	142429	26.61	-1
0	142986	26.71	-1
0	143543	26.81	-1
0	144100	26.91	-1
0	144665	27.01	-1
0	145222	27.11	-1
0	145779	27.21	-1
0	146336	27.31	-1
0	146893	27.41	-1
0	147450	27.51	-1
0	148007	27.61	-1
0	148564	27.71	-1
0	149121	27.81	-1
0	149678	27.91	-1
0	150243	28.01	-1
0	150800	28.11	-1
0	151357	28.21	-1
0	151914	28.31	-1
0	152471	28.41	-1
0	153028	28.51	-1
0	153585	28.61	-1
0	154142	28.71	-1
0	154699	28.81	-1
0	155256	28.91	-1
0	155821	29.01	-1
0	156378	29.11	-1
0	156935	29.21	-1
0	157492	29.31	-1
0	158049	29.41	-1
0	158606	29.51	-1
0	159163	29.61	-1
0	159720	29.71	-1
0	160277	29.81	-1
0	160834	29.91	-1
0	161399	30.01	-1
0	161956	30.11	-1
0	162513	30.21	-1
0	163070	30.31	-1
0	163627	30.41	-1
0	164184	30.51	-1
0	164741	30.61	-1
0	165298	30.71	-1
0	165855	30.81	-1
0	166412	30.91	-1
0	166977	31.01	-1
0	167534	31.11	-1
0	168091	31.21	-1
0	168648	31.31	-1
0	169205	31.41	-1
0	169762	31.51	-1
0	170319	31.61	-1
0	170876	31.71	-1
0	171433	31.81	-1
0	171990	31.91	-1
0	172555	32.01	-1
0	173112	32.11	-1
0	173669	32.21	-1
0	174226	32.31	-1
0	174783	32.41	-1
0	175340	32.51	-1
0	175897	32.61	-1
0	176454	32.71	-1
0	177011	32.81	-1
0	177568	32.91	-1
0	178133	33.01	-1
0	178690	33.11	-1
0	179247	33.21	-1
0	179804	33.31	-1
0	180361	33.41	-1
0	180918	33.51	-1
0	181475	33.61	-1
0	182032	33.71	-1
0	182589	33.81	-1
0	183146	33.91	-1
0	183711	34.01	-1
0	184268	34.11	-1
0	184825	34.21	-1
0	185382	34.31	-1
0	185939	34.41	-1
0	186496	34.51	-1
0	187053	34.61	-1
2	232	1.11	0
2	788	1.21	0
2	1344	1.31	0
2	1900	1.41	0
2	2456	1.51	0
2	3012	1.61	0
2	3568	1.71	0
2	4124	1.81	0
2	4680	1.91	0
2	5244	2.01	0
2	5800	2.11	0
2	6356	2.21	0
2	6912	2.31	0
2	7468	2.41	0
2	8024	2.51	0
2	8580	2.61	0
2	9136	2.71	0
2	9692	2.81	0
2	10248	2.91	0
2	10812	3.01	0
2	11368	3.11	0
2	11924	3.21	0
2	12480	3.31	0
2	13036	3.41	0
2	13592	3.51	0
2	14148	3.61	0
2	14704	3.71	0
2	15260	3.81	0
2	15816	3.91	0
2	16380	4.01	0
2	16936	4.11	0
2	17492	4.21	0
2	18048	4.31	0
2	18604	4.41	0
2	19160	4.51	0
2	19716	4.61	0
2	20272	4.71	0
2	20828	4.81	0
2	21384	4.91	0
2	21949	5.01	0
2	22506	5.11	0
2	23063	5.21	0
2	23620	5.31	0
2	24177	5.41	0
2	24734	5.51	0
2	25291	5.61	0
2	25848	5.71	0
2	26405	5.81	0
2	26962	5.91	0
2	27527	6.01	0
2	28084	6.11	0
2	28641	6.21	0
2	29198	6.31	0
2	29755	6.41	0
2	30312	6.51	0
2	30869	6.61	0
2	31426	6.71	0
2	31983	6.81	0
2	32540	6.91	0
2	33105	7.01	0
2	33662	7.11	0
2	34219	7.21	0
2	34776	7.31	0
2	35333	7.41	0
2	35890	7.51	0
2	36447	7.61	0
2	37004	7.71	0
2	37561	7.81	0
2	38118	7.91	0
2	38683	8.01	0
2	39240	8.11	0
2	39797	8.21	0
2	40354	8.31	0
2	40911	8.41	0
2	41468	8.51	0
2	42025	8.61	0
2	42582	8.71	0
2	43139	8.81	0
2	43696	8.91	0
2	44261	9.01	0
2	44818	9.11	0
2	45375	9.21	0
2	45932	9.31	0
2	46489	9.41	0
2	47046	9.51	0
2	47603	9.61	0
2	48160	9.71	0
2	48717	9.81	0
2	49274	9.91	0
2	49839	10.01	0
2	50396	10.11	0
2	50953	10.21	0
2	51510	10.31	0
2	52067	10.41	0
2	52624	10.51	0
2	53181	10.61	0
2	53738	10.71	0
2	54295	10.81	0
2	54852	10.91	0
2	55417	11.01	0
2	55974	11.11	0
2	56531	11.21	0
2	57088	11.31	0
2	57645	11.41	0
2	58202	11.51	0
2	58759	11.61	0
2	59316	11.71	0
2	59873	11.81	0
2	60430	11.91	0
2	60995	12.01	0
2	61552	12.11	0
2	62109	12.21	0
2	62666	12.31	0
2	63223	12.41	0
2	63780	12.51	0
2	64337	12.61	0
2	64894	12.71	0
2	65451	12.81	0
2	66008	12.91	0
2	66573	13.01	0
2	67130	13.11	0
2	67687	13.21	0
2	68244	13.31	0
2	68801	13.41	0
2	69358	13.51	0
2	69915	13.61	0
2	70472	13.71	0
2	71029	13.81	0
2	71586	13.91	0
2	72151	14.01	0
2	72708	14.11	0
2	73265	14.21	0
2	73822	14.31	0
2	74379	14.41	0
2	74936	14.51	0
2	75493	14.61	0
2	76050	14.71	0
2	76607	14.81	0
2	77164	14.91	0
2	77729	15.01	0
2	78286	15.11	0
2	78843	15.21	0
2	79400	15.31	0
2	79957	15.41	0
2	80514	15.51	0
2	81071	15.61	0
2	81628	15.71	0
2	82185	15.81	0
2	82742	15.91	0
2	83307	16.01	0
2	83864	16.11	0
2	84421	16.21	0
2	84978	16.31	0
2	85535	16.41	0
2	86092	16.51	0
2	86649	16.61	0
2	87206	16.71	0
2	87763	16.81	0
2	88320	16.91	0
2	88885	17.01	0
2	89442	17.11	0
2	89999	17.21	0
2	90556	17.31	0
2	91113	17.41	0
2	91670	17.51	0
2	92227	17.61	0
2	92784	17.71	0
2	93341	17.81	0
2	93898	17.91	0
2	94463	18.01	0
2	95020	18.11	0
2	95577	18.21	0
2	96134	18.31	0
2	96691	18.41	0
2	97248	18.51	0
2	97805	18.61	0
2	98362	18.71	0
2	98919	18.81	0
2	99476	18.91	0
2	100041	19.01	0
2	100598	19.11	0
2	101155	19.21	0
2	101712	19.31	0
2	102269	19.41	0
2	102826	19.51	0
2	103383	19.61	0
2	103940	19.71	0
2	104497	19.81	0
2	105054	19.91	0
2	105619	20.01	0
2	106176	20.11	0
2	106733	20.21	0
2	107290	20.31	0
2	107847	20.41	0
2	108404	20.51	0
2	108961	20.61	0
2	109518	20.71	0
2	110075	20.81	0
2	110632	20.91	0
2	111197	21.01	0
2	111754	21.11	0
2	112311	21.21	0
2	112868	21.31	0
2	113425	21.41	0
2	113982	21.51	0
2	114539	21.61	0
2	115096	21.71	0
2	115653	21.81	0
2	116210	21.91	0
2	116775	22.01	0
2	117332	22.11	0
2	117889	22.21	0
2	118446	22.31	0
2	119003	22.41	0
2	119560	22.51	0
2	120117	22.61	0
2	120674	22.71	0
2	121231	22.81	0
2	121788	22.91	0
2	122353	23.01	0
2	122910	23.11	0
2	123467	23.21	0
2	124024	23.31	0
2	124581	23.41	0
2	125138	23.51	0
2	125695	23.61	0
2	126252	23.71	0
2	126809	23.81	0
2	127366	23.91	0
2	127931	24.01	0
2	128488	24.11	0
2	129045	24.21	0
2	129602	24.31	0
2	130159	24.41	0
2	130716	24.51	0
2	131273	24.61	0
2	131830	24.71	0
2	132387	24.81	0
2	132944	24.91	0
2	133509	25.01	0
2	134066	25.11	0
2	134623	25.21	0
2	135180	25.31	0
2	135737	25.41	0
2	136294	25.51	0
2	136851	25.61	0
2	137408	25.71	0
2	137965	25.81	0
2	138522	25.91	0
2	139087	26.01	0
2	139644	26.11	0
2	140201	26.21	0
2	140758	26.31	0
2	141315	26.41	0
2	141872	26.51	0
2	142429	26.61	0
2	142986	26.71	0
2	143543	26.81	0
2	144100	26.91	0
2	144665	27.01	0
2	145222	27.11	0
2	145779	27.21	0
2	146336	27.31	0
2	146893	27.41	0
2	147450	27.51	0
2	148007	27.61	0
2	148564	27.71	0
2	149121	27.81	0
2	149678	27.91	0
2	150243	28.01	0
2	150800	28.11	0
2	151357	28.21	0
2	151914	28.31	0
2	152471	28.41	0
2	153028	28.51	0
2	153585	28.61	0
2	154142	28.71	0
2	154699	28.81	0
2	155256	28.91	0
2	155821	29.01	0
2	156378	29.11	0
2	156935	29.21	0
2	157492	29.31	0
2	158049	29.41	0
2	158606	29.51	0
2	159163	29.61	0
2	159720	29.71	0
2	160277	29.81	0
2	160834	29.91	0
2	161399	30.01	0
2	161956	30.11	0
2	162513	30.21	0
2	163070	30.31	0
2	163627	30.41	0
2	164184	30.51	0
2	164741	30.61	0
2	165298	30.71	0
2	165855	30.81	0
2	166412	30.91	0
2	166977	31.01	0
2	167534	31.11	0
2	168091	31.21	0
2	168648	31.31	0
2	169205	31.41	0
2	169762	31.51	0
2	170319	31.61	0
2	170876	31.71	0
2	171433	31.81	0
2	171990	31.91	0
2	172555	32.01	0
2	173112	32.11	0
2	173669	32.21	0
2	174226	32.31	0
2	174783	32.41	0
2	175340	32.51	0
2	175897	32.61	0
2	176454	32.71	0
2	177011	32.81	0
2	177568	32.91	0
2	178133	33.01	0
2	178690	33.11	0
2	179247	33.21	0
2	179804	33.31	0
2	180361	33.41	0
2	180918	33.51	0
2	181475	33.61	0
2	182032	33.71	0
2	182589	33.81	0
2	183146	33.91	0
2	183711	34.01	0
2	184268	34.11	0
2	184825	34.21	0
2	185382	34.31	0
2	185939	34.41	0
2	186496	34.51	0
2	187053	34.61	0
10	5056	2	0
10	10624	3	0
10	16192	4	0
10	21761	5	0
10	27338	6	0
10	32916	7	0
10	38494	8	0
10	44072	9	0
10	49650	10	0
10	55228	11	0
10	60806	12	0
10	66384	13	0
10	71962	14	0
10	77540	15	0
10	83118	16	0
10	88696	17	0
10	94274	18	0
10	99852	19	0
10	105430	20	0
10	111008	21	0
10	116586	22	0
10	122164	23	0
10	127742	24	0
10	133320	25	0
10	138898	26	0
10	144476	27	0
10	150054	28	0
10	155632	29	0
10	161210	30	0
10	166788	31	0
10	172366	32	0
10	177944	33	0
10	183522	34	0
9	5056	2	0.022755747372
9	10624	3	0.0262491856
9	16192	4	0.0262491856
9	21761	5	0.0262491856
9	27338	6	0.026262184005
9	32916	7	0.026249169954
9	38494	8	0.026249155171
9	44072	9	0.026249162229
9	49650	10	0.026249181034
9	55228	11	0.026249193079
9	60806	12	0.026249182587
9	66384	13	0.026249167145
9	71962	14	0.026249171721
9	77540	15	0.026249190053
9	83118	16	0.026249200105
9	88696	17	0.026249188199
9	94274	18	0.026249171813
9	99852	19	0.026249175368
9	105430	20	0.026249192918
9	111008	21	0.026249202018
9	116586	22	0.026262189362
9	122164	23	0.026249172402
9	127742	24	0.026249175381
9	133320	25	0.026249192395
9	138898	26	0.026249200971
9	144476	27	0.026249187993
9	150054	28	0.026249170857
9	155632	29	0.026249173639
9	161210	30	0.026249190426
9	166788	31	0.026249228711
9	172366	32	0.026249362207
9	177944	33	0.026249588385
9	183522	34	0.026250056748
8	5056	2	0
8	10624	3	0
8	16192	4	0
8	21761	5	0
8	27338	6	0
8	32916	7	0
8	38494	8	0
8	44072	9	0
8	49650	10	0
8	55228	11	0
8	60806	12	0
8	66384	13	0
8	71962	14	0
8	77540	15	0
8	83118	16	0
8	88696	17	0
8	94274	18	0
8	99852	19	0
8	105430	20	0
8	111008	21	0
8	116586	22	0
8	122164	23	0
8	127742	24	0
8	133320	25	0
8	138898	26	0
8	144476	27	0
8	150054	28	0
8	155632	29	0
8	161210	30	0
8	166788	31	0
8	172366	32	0
8	177944	33	0
8	183522	34	0
29	233	1.11	0
29	789	1.21	-8.3972169747426e-07
29	1345	1.31	-8.1978816467654e-07
29	1901	1.41	-7.8890192781955e-07
29	2457	1.51	-7.4961949181329e-07
29	3013	1.61	-7.0418137852357e-07
29	3569	1.71	-6.5452986547143e-07
29	4125	1.81	-6.0232866090359e-07
29	4681	1.91	-5.4898385414504e-07
29	5245	2.01	-4.9566571703963e-07
29	5801	2.11	-4.4333069084246e-07
29	6357	2.21	-3.9274310381643e-07
29	6913	2.31	-3.4449643919743e-07
29	7469	2.41	-2.9903373757634e-07
29	8025	2.51	-2.5666705454341e-07
29	8581	2.61	-2.1759556446455e-07
29	9137	2.71	-1.8192260256455e-07
29	9693	2.81	-1.4967115049558e-07
29	10249	2.91	-1.2079808612953e-07
29	10813	3.01	-9.5206945474047e-08
29	11369	3.11	-7.2759357720997e-08
29	11925	3.21	-5.3285155416916e-08
29	12481	3.31	-3.6591286942667e-08
29	13037	3.41	-2.2469358214039e-08
29	13593	3.51	-1.0702254513717e-08
29	14149	3.61	-1.0696234653551e-09
29	14705	3.71	6.6475024596002e-09
29	15261	3.81	1.2663027035842e-08
29	15817	3.91	1.7182821920869e-08
29	16381	4.01	2.040249825086e-08
29	16937	4.11	2.2505629573288e-08
29	17493	4.21	2.3662715591399e-08
29	18049	4.31	2.4030396588159e-08
29	18605	4.41	2.3751149598183e-08
29	19161	4.51	2.2953239096068e-08
29	19717	4.61	2.1750979897206e-08
29	20273	4.71	2.0245213931958e-08
29	20829	4.81	1.8523860632058e-08
29	21385	4.91	1.6662739596995e-08
29	21950	5.01	1.4726322490333e-08
29	22507	5.11	1.2768667971841e-08
29	23064	5.21	0.34733991367812
29	23621	5.31	0.68310171301112
29	24178	5.41	0.99698687371043
29	24735	5.51	1.2801412008515
29	25292	5.61	1.5
29	25849	5.71	1.5
29	26406	5.81	1.5
29	26963	5.91	1.5
29	27528	6.01	1.5
29	28085	6.11	1.5
29	28642	6.21	1.5
29	29199	6.31	1.5
29	29756	6.41	1.5
29	30313	6.51	1.5
29	30870	6.61	1.4355671712295
29	31427	6.71	1.1707411702669
29	31984	6.81	0.87004292403141
29	32541	6.91	0.54082467056267
29	33106	7.01	0.19068378401062
29	33663	7.11	-0.17266336173647
29	34220	7.21	-0.54150449037637
29	34777	7.31	-0.90825039771382
29	35334	7.41	-1.265548703408
29	35891	7.51	-1.4965029143087
29	36448	7.61	-1.5005046716756
29	37005	7.71	-1.5038752565782
29	37562	7.81	-1.5067125977241
29	38119	7.91	-1.5090991541454
29	38684	8.01	-1.5111044040271
29	39241	8.11	-1.5127869262904
29	39798	8.21	-1.5141961426058
29	40355	8.31	-1.5153737761092
29	40912	8.41	-1.5163550736358
29	41469	8.51	-1.517169830437
29	42026	8.61	-1.5178432498316
29	42583	8.71	-1.5183966648273
29	43140	8.81	-1.518848144256
29	43697	8.91	-1.5192130022218
29	44262	9.01	-1.5195042265551
29	44819	9.11	-1.5197328393767
29	45376	9.21	-1.5199082007198
29	45933	9.31	-1.5200382643636
29	46490	9.41	-1.5201297935359
29	47047	9.51	-1.5201885305329
29	47604	9.61	-1.1108272908171
29	48161	9.71	-0.67606654948734
29	48718	9.81	-0.23337927570981
29	49275	9.91	0.20671966890539
29	49840	10.01	0.6345046127202
29	50397	10.11	1.0411079471631
29	50954	10.21	1.4185787376737
29	51511	10.31	1.5051810946567
29	52068	10.41	1.5090615116663
29	52625	10.51	1.5122784652544
29	53182	10.61	1.5149362110143
29	53739	10.71	1.5171225912539
29	54296	10.81	1.5189116573241
29	54853	10.91	1.5203658660032
29	55418	11.01	1.5215379202346
29	55975	11.11	1.5
29	56532	11.21	1.5
29	57089	11.31	1.5
29	57646	11.41	1.5
29	58203	11.51	1.5
29	58760	11.61	1.5
29	59317	11.71	1.5
29	59874	11.81	1.5
29	60431	11.91	1.4661362189691
29	60996	12.01	1.0843662495501
29	61553	12.11	0.67909625147192
29	62110	12.21	0.26064143854843
29	62667	12.31	-0.16113636280559
29	63224	12.41	-0.57692378278204
29	63781	12.51	-0.97804243799486
29	64338	12.61	-1.3565266162333
29	64895	12.71	-1.496073251153
29	65452	12.81	-1.5001428766617
29	66009	12.91	-1.5035702580974
29	66574	13.01	-1.5064550568514
29	67131	13.11	-1.508881193758
29	67688	13.21	-1.5109193808269
29	68245	13.31	-1.5126292388231
29	68802	13.41	-1.5140610694997
29	69359	13.51	-1.5152573396995
29	69916	13.61	-1.5162539249249
29	70473	13.71	-1.5170811520014
29	71030	13.81	-1.5177646738299
29	71587	13.91	-1.5183262037263
29	72152	14.01	-1.5187841322711
29	72709	14.11	-1.5191540457915
29	73266	14.21	-1.5194491624358
29	73823	14.31	-1.5196806991702
29	74380	14.41	-1.5198581808326
29	74937	14.51	-1.2337485801183
29	75494	14.61	-0.82408917122754
29	76051	14.71	-0.39934044586107
29	76608	14.81	0.030181122270522
29	77165	14.91	0.45476250442643
29	77730	15.01	0.86537805474934
29	78287	15.11	1.2537641117848
29	78844	15.21	1.5028529212039
29	79401	15.31	1.507001147192
29	79958	15.41	1.5104465809424
29	80515	15.51	1.5132997091384
29	81072	15.61	1.5156535884184
29	81629	15.71	1.5175866366356
29	82186	15.81	1.5191649697034
29	82743	15.91	1.5
29	83308	16.01	1.5
29	83865	16.11	1.5
29	84422	16.21	1.5
29	84979	16.31	1.5
29	85536	16.41	1.5
29	86093	16.51	1.5
29	86650	16.61	1.5
29	87207	16.71	1.5
29	87764	16.81	1.5
29	88321	16.91	1.5
29	88886	17.01	1.1870092772165
29	89443	17.11	0.77883980751551
29	90000	17.21	0.3562285679406
29	90557	17.31	-0.070661634306802
29	91114	17.41	-0.49225357524372
29	91671	17.51	-0.89964017423336
29	92228	17.61	-1.2846599369485
29	92785	17.71	-1.4944585990265
29	93342	17.81	-1.4986931297021
29	93899	17.91	-1.5022644126125
[...]
101	102335	19.469561328756	0.100000080907
101	102892	19.569561409455	0.100000080699
101	103449	19.669561489946	0.100000080491
101	104006	19.769561570236	0.10000008029
101	104563	19.869561650343	0.100000080107
101	105120	19.969561730286	0.100000079943
101	105685	20.069561810101	0.100000079815
101	106242	20.169561889818	0.100000079717
101	106799	20.269561969474	0.100000079656
101	107356	20.36956204911	0.100000079636
101	107913	20.469562128759	0.100000079649
101	108470	20.56956220845	0.100000079691
101	109027	20.66956228821	0.10000007976
101	109584	20.769562368057	0.100000079847
101	110141	20.869562448013	0.100000079956
101	110698	20.96956252809	0.100000080077
101	111263	21.069562608302	0.100000080212
101	111820	21.169562688661	0.100000080359
101	112377	21.269562769177	0.100000080516
101	112934	21.369562849856	0.100000080679
101	113491	21.469562930709	0.100000080853
101	114048	21.569563011744	0.100000081035
101	114605	21.669563092964	0.10000008122
101	115162	21.769563174376	0.100000081412
101	115719	21.869563255989	0.100000081613
101	116276	21.969563337804	0.100000081815
101	116841	22.069563419825	0.100000082021
101	117398	22.16956350205	0.100000082225
101	117955	22.269563584473	0.100000082423
101	118512	22.369563667075	0.100000082602
101	119069	22.469563749836	0.100000082761
101	119626	22.569563832724	0.100000082888
101	120183	22.669563915709	0.100000082985
101	120740	22.769563998751	0.100000083042
101	121297	22.869564081814	0.100000083063
101	121854	22.969564164865	0.100000083051
101	122419	23.069564247875	0.10000008301
101	122976	23.16956433082	0.100000082945
101	123533	23.269564413679	0.100000082859
101	124090	23.369564496437	0.100000082758
101	124647	23.469564579078	0.100000082641
101	125204	23.56956466159	0.100000082512
101	125761	23.66956474396	0.10000008237
101	126318	23.769564826181	0.100000082221
101	126875	23.869564908242	0.100000082061
101	127432	23.969564990136	0.100000081894
101	127997	24.069565071856	0.10000008172
101	128554	24.169565153395	0.100000081539
101	129111	24.269565234743	0.100000081348
101	129668	24.369565315899	0.100000081156
101	130225	24.469565396854	0.100000080955
101	130782	24.569565477604	0.10000008075
101	131339	24.669565558152	0.100000080548
101	131896	24.769565638505	0.100000080353
101	132453	24.869565718679	0.100000080174
101	133010	24.969565798696	0.100000080017
101	133575	25.069565878588	0.100000079892
101	134132	25.169565958391	0.100000079803
101	134689	25.26956603814	0.100000079749
101	135246	25.369566117871	0.100000079731
101	135803	25.469566197623	0.100000079752
101	136360	25.56956627742	0.100000079797
101	136917	25.669566357289	0.100000079869
101	137474	25.769566437252	0.100000079963
101	138031	25.869566517326	0.100000080074
101	138588	25.969566597524	0.100000080198
101	139153	26.069566677861	0.100000080337
101	139710	26.169566758348	0.100000080487
101	140267	26.269566838994	0.100000080646
101	140824	26.369566919807	0.100000080813
101	141381	26.469567000795	0.100000080988
101	141938	26.569567081968	0.100000081173
101	142495	26.669567163329	0.100000081361
101	143052	26.769567244883	0.100000081554
101	143609	26.869554326639	0.099987081756
101	144166	26.969554408598	0.100000081959
101	144731	27.069554490766	0.100000082168
101	145288	27.169554573141	0.100000082375
101	145845	27.269554655714	0.100000082573
101	146402	27.369554738468	0.100000082754
101	146959	27.469554821381	0.100000082913
101	147516	27.569554904426	0.100000083045
101	148073	27.669554987566	0.10000008314
101	148630	27.769555070766	0.1000000832
101	149187	27.869555153987	0.100000083221
101	149744	27.969555237201	0.100000083214
101	150309	28.069555320372	0.100000083171
101	150866	28.169555403484	0.100000083112
101	151423	28.269555486512	0.100000083028
101	151980	28.36955556944	0.100000082928
101	152537	28.469555652251	0.100000082811
101	153094	28.569555734938	0.100000082687
101	153651	28.669555817484	0.100000082546
101	154208	28.769555899883	0.100000082399
101	154765	28.869555982125	0.100000082242
101	155322	28.969556064201	0.100000082076
101	155887	29.069556146106	0.100000081905
101	156444	29.16955622783	0.100000081724
101	157001	29.269556309369	0.100000081539
101	157558	29.369556390717	0.100000081348
101	158115	29.469556471865	0.100000081148
101	158672	29.569556552811	0.100000080946
101	159229	29.669556633558	0.100000080747
101	159786	29.769556714111	0.100000080553
101	160343	29.869556794489	0.100000080378
101	160900	29.969556874715	0.100000080226
101	161465	30.069556954812	0.100000080097
101	162022	30.16955703473	0.100000079918
101	162579	30.269557114307	0.100000079577
101	163136	30.36955719337	0.100000079063
101	163693	30.469557271766	0.100000078396
101	164250	30.56955734936	0.100000077594
101	164807	30.669557426027	0.100000076667
101	165364	30.769557501656	0.100000075629
101	165921	30.869557576138	0.100000074482
101	166478	30.969557649379	0.100000073241
101	167043	31.069557721282	0.100000071903
101	167600	31.169557791762	0.10000007048
101	168157	31.269557860732	0.10000006897
101	168714	31.369557928113	0.100000067381
101	169271	31.469557993826	0.100000065713
101	169828	31.569558057795	0.100000063969
101	170385	31.669558119943	0.100000062148
101	170942	31.769558180197	0.100000060254
101	171499	31.869558238487	0.10000005829
101	172056	31.969558294739	0.100000056252
101	172621	32.069558348881	0.100000054142
101	173178	32.169558400831	0.10000005195
101	173735	32.269558450495	0.100000049664
101	174292	32.369558497752	0.100000047257
101	174849	32.469558542446	0.100000044694
101	175406	32.569558584385	0.100000041939
101	175963	32.669558623338	0.100000038953
101	176520	32.769558659027	0.100000035689
101	177077	32.869558691136	0.100000032109
101	177634	32.969558719307	0.100000028171
101	178199	33.069558743156	0.100000023849
101	178756	33.16955876227	0.100000019114
101	179313	33.269558776216	0.100000013946
101	179870	33.36955878455	0.100000008334
101	180427	33.469558786804	0.100000002254
101	180984	33.569558782505	0.099999995701
101	181541	33.669558771162	0.099999988657
101	182098	33.769558752285	0.099999981123
101	182655	33.869558725368	0.099999973083
101	183212	33.969558689902	0.099999964534
101	183777	34.069558645371	0.099999955469
101	184334	34.169558591254	0.099999945883
101	184891	34.269558527028	0.099999935774
101	185448	34.369558452166	0.099999925138
101	186005	34.46955836614	0.099999913974
101	186562	34.56955826843	0.09999990229
102	1312	1.306018002769	0.09993508144
102	1868	1.406096084209	0.10007808144
102	2424	1.506083165649	0.09998708144
102	2980	1.606057247089	0.09997408144
102	3536	1.706070328529	0.10001308144
102	4092	1.806083409969	0.10001308144
102	4648	1.906070491409	0.09998708144
102	5212	2.006018572849	0.09994808144
102	5768	2.106083654289	0.10006508144
102	6324	2.206018735729	0.09993508144
102	6880	2.306096817169	0.10007808144
102	7436	2.406070898609	0.09997408144
102	7992	2.506031980049	0.09996108144
102	8548	2.606084061489	0.10005208144
102	9104	2.706006142929	0.09992208144
102	9660	2.806032224369	0.10002608144
102	10216	2.906097305809	0.10006508144
102	10780	3.006071387249	0.09997408144
102	11336	3.106006468689	0.09993508144
102	11892	3.206058550129	0.10005208144
102	12448	3.306045631569	0.09998708144
102	13004	3.406006713009	0.09996108144
102	13560	3.506097794449	0.10009108144
102	14116	3.606045875889	0.09994808144
102	14672	3.706084957329	0.10003908144
102	15228	3.806059038769	0.09997408144
102	15784	3.906033120209	0.09997408144
102	16348	4.006020201649	0.09998708144
102	16904	4.106033283089	0.10001308144
102	17460	4.206007364529	0.09997408144
102	18016	4.306098445969	0.10009108144
102	18572	4.406007527409	0.09990908144
102	19128	4.506072608849	0.10006508144
102	19684	4.606059690289	0.09998708144
102	20240	4.706072771729	0.10001308144
102	20796	4.806059853169	0.09998708144
102	21352	4.906098934609	0.10003908144
102	21917	5.006021016049	0.09992208144
102	22474	5.106086097489	0.10006508144
102	23031	5.206073178929	0.09998708144
102	23582	5.306060260373	0.099987081444
102	24139	5.406008341831	0.099948081458
102	24696	5.506073423317	0.100065081486
102	25253	5.606060504851	0.099987081534
102	25810	5.70600858646	0.099948081609
102	26367	5.80604766817	0.10003908171
102	26924	5.906034750003	0.099987081833
102	27489	6.006021831976	0.099987081973
102	28046	6.106008914106	0.09998708213
102	28603	6.206060996407	0.100052082301
102	29160	6.306074078889	0.100013082482
102	29717	6.406100161563	0.100026082674
102	30274	6.506035244436	0.099935082873
102	30831	6.606087327517	0.100052083081
102	31388	6.70606141081	0.099974083293
102	31945	6.806061494318	0.100000083508
102	32502	6.90607457804	0.100013083722
102	33067	7.006074661965	0.100000083925
102	33624	7.10603574608	0.099961084115
102	34181	7.20602283036	0.09998708428
102	34738	7.306009914784	0.099987084424
102	35295	7.406022999321	0.100013084537
102	35852	7.506036083931	0.10001308461
102	36409	7.606036168583	0.100000084652
102	36966	7.706101253243	0.10006508466
102	37523	7.806088337877	0.099987084634
102	38080	7.906088422461	0.100000084584
102	38645	8.00606250697	0.099974084509
102	39202	8.106010591389	0.099948084419
102	39759	8.206023675701	0.100013084312
102	40316	8.30604975989	0.100026084189
102	40873	8.406049843946	0.100000084056
102	41430	8.506023927856	0.09997408391
102	41987	8.606076011609	0.100052083753
102	42544	8.706076095201	0.100000083592
102	43101	8.806076178621	0.10000008342
102	43658	8.906089261857	0.100013083236
102	44223	9.006037344906	0.099948083049
102	44780	9.106063427761	0.100026082855
102	45343	9.206063510416	0.100000082655
102	45900	9.306011592862	0.099948082446
102	46457	9.406050675095	0.100039082233
102	47014	9.506024757108	0.099974082013
102	47571	9.606089838894	0.100065081786
102	48128	9.706050920453	0.099961081559
102	48685	9.806038001791	0.099987081338
102	49242	9.90602508292	0.099987081129
102	49807	10.006012163863	0.099987080943
102	50364	10.106077244652	0.100065080789
102	50921	10.206038325319	0.099961080667
102	51478	10.306077405903	0.100039080584
102	52035	10.406038486447	0.099961080544
102	52592	10.506103566983	0.100065080536
102	53149	10.606025647545	0.099922080562
102	53706	10.706103728157	0.100078080612
102	54263	10.806012808841	0.099909080684
102	54820	10.906090889616	0.100078080775
102	55385	11.0060779705	0.099987080884
102	55942	11.106078051506	0.100000081006
102	56499	11.206026132647	0.099948081141
102	57056	11.306039213934	0.100013081287
102	57613	11.406078295374	0.10003908144
102	58170	11.50602637698	0.099948081606
102	58727	11.606026458756	0.100000081776
102	59284	11.70607854071	0.100052081954
102	59841	11.806013622849	0.099935082139
102	60398	11.906052705177	0.100039082328
102	60957	12.006091787698	0.100039082521
102	61514	12.106078870417	0.099987082719
102	62071	12.206104953327	0.10002608291
102	62628	12.306092036413	0.099987083086
102	63185	12.406040119654	0.099948083241
102	63742	12.506027203026	0.099987083372
102	64299	12.606066286493	0.100039083467
102	64856	12.70605337002	0.099987083527
102	65413	12.806105453567	0.100052083547
102	65970	12.906040537102	0.099935083535
102	66535	13.006066620592	0.10002608349
102	67092	13.106066704012	0.10000008342
102	67649	13.206040787343	0.099974083331
102	68206	13.306092870565	0.100052083222
102	68763	13.406027953662	0.099935083097
102	69320	13.506015036622	0.09998708296
102	69883	13.606028119434	0.100013082812
102	70440	13.706067202085	0.100039082651
102	70997	13.806028284566	0.099961082481
102	71554	13.906067366871	0.100039082305
102	72119	14.006041448991	0.09997408212
102	72676	14.106080530917	0.100039081926
102	73233	14.206093612645	0.100013081728
102	73790	14.306041694167	0.099948081522
102	74347	14.406028775477	0.09998708131
102	74904	14.506041856569	0.100013081092
102	75461	14.60604193744	0.100000080871
102	76018	14.706068018095	0.100026080655
102	76575	14.806016098543	0.099948080448
102	77132	14.906094178806	0.100078080263
102	77697	15.006068258907	0.099974080101
102	78254	15.10604233888	0.099974079973
102	78811	15.206029418762	0.099987079882
102	79368	15.30610749859	0.100078079828
102	79925	15.406094578406	0.099987079816
102	80482	15.506094658242	0.100000079836
102	81039	15.606068738123	0.099974079881
102	81596	15.706029818074	0.099961079951
102	82153	15.806016898116	0.099987080042
102	82710	15.906029978264	0.100013080148
102	83275	16.006043058535	0.100013080271
102	83832	16.106017138941	0.099974080406
102	84389	16.206017219493	0.100000080552
102	84946	16.306056300201	0.100039080708
102	85503	16.406017381073	0.099961080872
102	86060	16.506017462118	0.100000081045
102	86617	16.606030543339	0.100013081221
102	87174	16.706017624746	0.099987081407
102	87731	16.806069706342	0.100052081596
102	88288	16.906004788137	0.099935081795
102	88853	17.006017870133	0.100013081996
102	89410	17.106030952334	0.100013082201
102	89961	17.206096034734	0.1000650824
102	90518	17.30609611732	0.100000082586
102	91075	17.406070200075	0.099974082755
102	91632	17.50604428297	0.099974082895
102	92189	17.606044365975	0.100000083005
102	92746	17.706005449054	0.099961083079
102	93303	17.806031532167	0.100026083113
102	93860	17.90605761528	0.100026083113
102	94425	18.006031698358	0.099974083078
102	94982	18.106018781378	0.09998708302
102	95539	18.206096864317	0.100078082939
102	96096	18.306031947155	0.099935082838
102	96659	18.406019029877	0.099987082722
102	97216	18.506045112469	0.100026082592
102	97773	18.606045194922	0.100000082453
102	98330	18.706019277223	0.099974082301
102	98887	18.806084359362	0.100065082139
102	99444	18.906019441331	0.099935081969
102	100009	19.006058523125	0.100039081794
102	100566	19.106084604732	0.100026081607
102	101123	19.206071686147	0.099987081415
102	101680	19.306058767363	0.099987081216
102	102237	19.406084848376	0.100026081013
102	102794	19.50600692918	0.099922080804
102	103351	19.606007009771	0.100000080591
102	103908	19.706007090154	0.100000080383
102	104465	19.806085170338	0.100078080184
102	105022	19.906020250344	0.099935080006
102	105587	20.006046330202	0.100026079858
102	106144	20.106033409942	0.09998707974
102	106701	20.2060594896	0.100026079658
102	107258	20.306072569218	0.100013079618
102	107815	20.406059648833	0.099987079615
102	108372	20.506072728475	0.100013079642
102	108929	20.606098808175	0.1000260797
102	109486	20.706059887953	0.099961079778
102	110043	20.806072967832	0.100013079879
102	110600	20.906060047827	0.099987079995
102	111165	21.006021127949	0.099961080122
102	111722	21.106086208215	0.100065080266
102	112279	21.206099288633	0.100013080418
102	112836	21.306099369213	0.10000008058
102	113393	21.406034449961	0.099935080748
102	113950	21.506073530889	0.100039080928
102	114507	21.606021612002	0.099948081113
102	115064	21.706060693303	0.100039081301
102	115621	21.806086774803	0.1000260815
102	116178	21.906034856504	0.099948081701
102	116743	22.006008938412	0.099974081908
102	117300	22.106087020527	0.100078082115
102	117851	22.206087102849	0.100000082322
102	118408	22.306061185364	0.099974082515
102	118965	22.406100268052	0.100039082688
102	119522	22.506009350888	0.099909082836
102	120079	22.606061433841	0.100052082953
102	120636	22.706087516873	0.100026083032
102	121193	22.806100599945	0.100013083072
102	121750	22.906022683023	0.099922083078
102	122315	23.006048766071	0.100026083048
102	122872	23.106022849067	0.099974082996
102	123429	23.206074931987	0.10005208292
102	123986	23.306088014814	0.100013082827
102	124543	23.406075097531	0.099987082717
102	125106	23.506075180122	0.100000082591
102	125663	23.606062262578	0.099987082456
102	126220	23.706036344888	0.09997408231
102	126777	23.806036427043	0.100000082155
102	127334	23.906088509032	0.100052081989
102	127899	24.006049590851	0.099961081819
102	128456	24.10604967249	0.100000081639
102	129013	24.206062753941	0.100013081451
102	129570	24.306036835201	0.09997408126
102	130127	24.406088916261	0.10005208106
102	130684	24.506088997116	0.100000080855
102	131241	24.606089077765	0.100000080649
102	131798	24.70605015821	0.099961080445
102	132355	24.806063238462	0.100013080252
102	132912	24.906089318543	0.100026080081
102	133477	25.006076398479	0.099987079936
102	134034	25.106011478304	0.099935079825
102	134591	25.206037558055	0.100026079751
102	135148	25.306076637768	0.100039079713
102	135705	25.406063717485	0.099987079717
102	136262	25.506011797234	0.099948079749
102	136819	25.606089877043	0.100078079809
102	137376	25.706050956938	0.099961079895
102	137933	25.806038036935	0.099987079997
102	138490	25.90610311705	0.100065080115
102	139055	26.006090197298	0.099987080248
102	139612	26.106077277692	0.099987080394
102	140169	26.20601235824	0.099935080548
102	140726	26.306025438953	0.100013080713
102	141283	26.406077519837	0.100052080884
102	141840	26.506090600904	0.100013081067
102	142397	26.606025682155	0.099935081251
102	142954	26.706103763599	0.100078081444
102	143511	26.806025845242	0.099922081643
102	144068	26.906077927087	0.100052081845
102	144633	27.006026009141	0.099948082054
102	145184	27.106104091406	0.100078082265
102	145741	27.206026173878	0.099922082472
102	146298	27.306065256545	0.100039082667
102	146855	27.406026339385	0.09996108284
102	147412	27.506078422377	0.100052082992
102	147969	27.606065505485	0.099987083108
102	148526	27.706104588675	0.10003908319
102	149083	27.806013671905	0.09990908323
102	149640	27.906065755144	0.100052083239
102	150205	28.006104838356	0.100039083212
102	150762	28.106104921518	0.100000083162
102	151319	28.206014004606	0.099909083088
102	151876	28.306079087603	0.100065082997
102	152433	28.40607917049	0.100000082887
102	152990	28.506105253256	0.100026082766
102	153553	28.606079335889	0.099974082633
102	154110	28.706014418377	0.099935082488
102	154667	28.806040500712	0.100026082335
102	155224	28.906092582884	0.100052082172
102	155789	29.006066664888	0.099974082004
102	156346	29.106066746713	0.100000081825
102	156903	29.206053828355	0.099987081642
102	157460	29.306014909807	0.099961081452
102	158017	29.406066991061	0.100052081254
102	158574	29.506054072113	0.099987081052
102	159131	29.606028152961	0.099974080848
102	159688	29.706028233606	0.100000080645
102	160245	29.806015314062	0.099987080456
102	160802	29.906041394352	0.10002608029
102	161367	30.006106474498	0.100065080146
102	161924	30.106015554484	0.099909079986
102	162475	30.206080634117	0.100065079633
102	163032	30.306106713209	0.100026079092
102	163589	30.406067791614	0.099961078405
102	164146	30.506041869199	0.099974077585
102	164703	30.606028945842	0.099987076643
102	165260	30.706055021437	0.100026075595
102	165817	30.806016095873	0.099961074436
102	166374	30.90608116906	0.100065073187
102	166939	31.006068240902	0.099987071842
102	167496	31.106029311315	0.099961070413
102	168053	31.206081380213	0.100052068898
102	168610	31.306068447518	0.099987067305
102	169167	31.406029513152	0.099961065634
102	169724	31.506094577037	0.100065063885
102	170281	31.6060296391	0.099935062063
102	170838	31.706055699267	0.100026060167
102	171395	31.806068757465	0.100013058198
102	171952	31.906016813626	0.099948056161
102	172517	32.006042867677	0.100026054051
102	173074	32.10605591954	0.100013051863
102	173631	32.206081969129	0.100026049589
102	174188	32.306056016326	0.099974047197
102	174745	32.40605606098	0.100000044654
102	175302	32.506030102903	0.099974041923
102	175859	32.606069141867	0.100039038964
102	176416	32.706108177593	0.100039035726
102	176973	32.806017209764	0.099909032171
102	177530	32.90606923802	0.100052028256
102	178095	33.00603026197	0.09996102395
102	178652	33.1060692812	0.10003901923
102	179209	33.206030295276	0.099961014076
102	179766	33.306030303748	0.100000008472
102	180323	33.40606930615	0.100039002402
102	180880	33.506082302006	0.100012995856
102	181437	33.606043290824	0.099960988818
102	181994	33.706056272113	0.100012981289
102	182551	33.806069245366	0.100012973253
102	183108	33.906095210073	0.100025964707
102	183673	34.006056165719	0.099960955646
102	184230	34.106017111782	0.099960946063
102	184787	34.206069047737	0.100051935955
102	185344	34.30606897306	0.099999925323
102	185901	34.406029887219	0.099960914159
102	186458	34.506055789694	0.100025902475
102	187015	34.606107679969	0.100051890275
