file 1675963 1512143076                                         
version 2
run SinusoidalAccInjectionAttack-30-20171201-16:44:06-21322
attr CACCSpacing 20
attr attackAcc -30
attr attackPos 7
attr attackSpeed 150
attr attackStart 30
attr attacker 4
attr beaconInterval 0.1
attr configname SinusoidalAccInjectionAttack
attr controller 2
attr datetime 20171201-16:44:06
attr experiment SinusoidalAccInjectionAttack
attr fakeAcc "(4 == 4)"
attr fakePos "(4 == 2)"
attr fakeSpeed "(4 == 3)"
attr inifile omnetpp_30.ini
attr iterationvars "$attacker=4, $attackSpeed=150, $attackPos=7, $attackAcc=-30, $leaderSpeed=100, $controller=2, $CACCSpacing=20, $sController=\"PLOEG\", $attackStart=30, $0=2, $1=0.5, $nCars=8, $platoonSize=8, $nLanes=1, $beaconInterval=0.1, $priority=2, $packetSize=200, $ploegH=0.5, $leaderHeadway=1.2, $fakeSpeed=(4 == 3), $fakeAcc=(4 == 4), $fakePos=(4 == 2)"
attr iterationvarsf attacker=4,attackSpeed=150,attackPos=7,attackAcc=-30,leaderSpeed=100,controller=2,CACCSpacing=20,sController=PLOEG,attackStart=30,2,0.5,nCars=8,platoonSize=8,nLanes=1,beaconInterval=0.1,priority=2,packetSize=200,ploegH=0.5,leaderHeadway=1.2,fakeSpeed=(4_==_3),fakeAcc=(4_==_4),fakePos=(4_==_2)-
attr leaderHeadway 1.2
attr leaderSpeed 100
attr measurement "$attacker=4, $attackSpeed=150, $attackPos=7, $attackAcc=-30, $leaderSpeed=100, $controller=2, $CACCSpacing=20, $sController=\"PLOEG\", $attackStart=30, $0=2, $1=0.5, $nCars=8, $platoonSize=8, $nLanes=1, $beaconInterval=0.1, $priority=2, $packetSize=200, $ploegH=0.5, $leaderHeadway=1.2, $fakeSpeed=(4 == 3), $fakeAcc=(4 == 4), $fakePos=(4 == 2)"
attr nCars 8
attr nLanes 1
attr network scenario
attr packetSize 200
attr platoonSize 8
attr ploegH 0.5
attr priority 2
attr processid 21322
attr repetition 0
attr replication #0
attr resultdir results
attr runnumber 30
attr sController "\"PLOEG\""
attr seedset 0
param **.coreDebug false
param **.debug false
param **.headway 0.1s
param **.numberOfCars 8
param **.numberOfCarsPerPlatoon 8
param **.numberOfLanes 1
param **.numericController 2
param **.traffic.nCars 8
param **.traffic.nLanes 1
param **.traffic.platoonInsertDistance 2m
param **.traffic.platoonInsertHeadway 0.5s
param **.traffic.platoonInsertSpeed 100kmph
param **.traffic.platoonInsertTime "1 s"
param **.traffic.platoonLeaderHeadway 1.2s
param **.traffic.platoonSize 8
param **.traffic.platooningVType "\"vtypeauto\""
param **.traffic_type "\"PlatoonsTrafficManager\""
param *.**.nic.mac1609_4.bitrate 6Mbps
param *.**.nic.mac1609_4.txPower 100mW
param *.**.nic.mac1609_4.useServiceChannel false
param *.**.nic.phy80211p.analogueModels "xmldoc(\"config.xml\")"
param *.**.nic.phy80211p.decider "xmldoc(\"config.xml\")"
param *.**.nic.phy80211p.maxTXPower 100mW
param *.**.nic.phy80211p.sensitivity -94dBm
param *.**.nic.phy80211p.thermalNoise -95dBm
param *.**.nic.phy80211p.usePropagationDelay true
param *.**.nic.phy80211p.useThermalNoise true
param *.annotations.draw false
param *.connectionManager.alpha 2.0
param *.connectionManager.carrierFrequency "5.890e9 Hz"
param *.connectionManager.pMax 100mW
param *.connectionManager.sat -94dBm
param *.connectionManager.sendDirect true
param *.manager.autoShutdown true
param *.manager.commandLine "\"sumo --remote-port $port --seed $seed --configuration-file $configFile\""
param *.manager.configFile "\"./sumocfg/freeway.sumo.cfg\""
param *.manager.host "\"localhost\""
param *.manager.margin 25
param *.manager.moduleDisplayString "\"\""
param *.manager.moduleName "\"node\""
param *.manager.moduleType "\"Car\""
param *.manager.updateInterval 0.01s
param *.node[*].appl.attackStart 30s
param *.node[*].appl.attackerType 4
param *.node[*].appl.simulationDuration "60 s"
param *.node[*].appl_type "\"SimplePlatooningApp\""
param *.node[*].helper.nCars 8
param *.node[*].helper.nLanes 1
param *.node[*].helper.platoonSize 8
param *.node[*].helper_type "\"PositionHelper\""
param *.node[*].mobility.x 0
param *.node[*].mobility.y 0
param *.node[*].mobility.z 1.895
param *.node[*].prot.attackStart 30s
param *.node[*].prot.attackerType 4
param *.node[*].prot.attackingNode 3
param *.node[*].prot.beaconingInterval 0.1s
param *.node[*].prot.fakeAcc "(4 == 4)"
param *.node[*].prot.fakePos "(4 == 2)"
param *.node[*].prot.fakeSpeed "(4 == 3)"
param *.node[*].prot.maliciousAcc "-30 mpss"
param *.node[*].prot.maliciousSpeed 150kmph
param *.node[*].prot.packetSize 200
param *.node[*].prot.priority 2
param *.node[*].prot.shiftX "7 m"
param *.node[*].prot.useControllerAcceleration true
param *.node[*].protocol_type "\"SimplePlatooningBeaconing\""
param *.node[*].scenario.accHeadway 0.1s
param *.node[*].scenario.caccC1 0.5
param *.node[*].scenario.caccOmegaN "0.2 Hz"
param *.node[*].scenario.caccSpacing 20m
param *.node[*].scenario.caccXi 1
param *.node[*].scenario.controller "\"PLOEG\""
param *.node[*].scenario.engineTau "0.5 s"
param *.node[*].scenario.leaderHeadway 1.2s
param *.node[*].scenario.leaderSpeed 100kmph
param *.node[*].scenario.ploegH 0.5s
param *.node[*].scenario.ploegKd 0.7
param *.node[*].scenario.ploegKp 0.2
param *.node[*].scenario.useRealisticEngine false
param *.node[*].scenario_type "\"SinusoidalScenario\""
param *.node[*].unicast.packetLossRate 0
param *.obstacles.debug false
param *.playgroundSizeX 65000m
param *.playgroundSizeY 25000m
param *.playgroundSizeZ 50m
param *.world.use2D false
param *.world.useTorus false

vector 0  scenario.node[0].appl  distance  ETV
vector 1  scenario.node[0].appl  relativeSpeed  ETV
vector 2  scenario.node[0].appl  nodeId  ETV
vector 6  scenario.node[0].appl  acceleration  ETV
vector 7  scenario.node[0].appl  controllerAcceleration  ETV
vector 3  scenario.node[0].appl  speed  ETV
vector 4  scenario.node[0].appl  posx  ETV
vector 5  scenario.node[0].appl  posy  ETV
vector 22  scenario.node[1].appl  distance  ETV
vector 23  scenario.node[1].appl  relativeSpeed  ETV
vector 24  scenario.node[1].appl  nodeId  ETV
vector 28  scenario.node[1].appl  acceleration  ETV
vector 29  scenario.node[1].appl  controllerAcceleration  ETV
vector 25  scenario.node[1].appl  speed  ETV
vector 26  scenario.node[1].appl  posx  ETV
vector 27  scenario.node[1].appl  posy  ETV
vector 44  scenario.node[2].appl  distance  ETV
vector 45  scenario.node[2].appl  relativeSpeed  ETV
vector 46  scenario.node[2].appl  nodeId  ETV
vector 50  scenario.node[2].appl  acceleration  ETV
vector 51  scenario.node[2].appl  controllerAcceleration  ETV
vector 47  scenario.node[2].appl  speed  ETV
vector 48  scenario.node[2].appl  posx  ETV
vector 49  scenario.node[2].appl  posy  ETV
vector 66  scenario.node[3].appl  distance  ETV
vector 67  scenario.node[3].appl  relativeSpeed  ETV
vector 68  scenario.node[3].appl  nodeId  ETV
vector 72  scenario.node[3].appl  acceleration  ETV
vector 73  scenario.node[3].appl  controllerAcceleration  ETV
vector 69  scenario.node[3].appl  speed  ETV
vector 70  scenario.node[3].appl  posx  ETV
vector 71  scenario.node[3].appl  posy  ETV
vector 88  scenario.node[4].appl  distance  ETV
vector 89  scenario.node[4].appl  relativeSpeed  ETV
vector 90  scenario.node[4].appl  nodeId  ETV
vector 94  scenario.node[4].appl  acceleration  ETV
vector 95  scenario.node[4].appl  controllerAcceleration  ETV
vector 91  scenario.node[4].appl  speed  ETV
vector 92  scenario.node[4].appl  posx  ETV
vector 93  scenario.node[4].appl  posy  ETV
vector 110  scenario.node[5].appl  distance  ETV
vector 111  scenario.node[5].appl  relativeSpeed  ETV
vector 112  scenario.node[5].appl  nodeId  ETV
vector 116  scenario.node[5].appl  acceleration  ETV
vector 117  scenario.node[5].appl  controllerAcceleration  ETV
vector 113  scenario.node[5].appl  speed  ETV
vector 114  scenario.node[5].appl  posx  ETV
vector 115  scenario.node[5].appl  posy  ETV
vector 132  scenario.node[6].appl  distance  ETV
vector 133  scenario.node[6].appl  relativeSpeed  ETV
vector 134  scenario.node[6].appl  nodeId  ETV
vector 138  scenario.node[6].appl  acceleration  ETV
vector 139  scenario.node[6].appl  controllerAcceleration  ETV
vector 135  scenario.node[6].appl  speed  ETV
vector 136  scenario.node[6].appl  posx  ETV
vector 137  scenario.node[6].appl  posy  ETV
vector 154  scenario.node[7].appl  distance  ETV
vector 155  scenario.node[7].appl  relativeSpeed  ETV
vector 156  scenario.node[7].appl  nodeId  ETV
vector 160  scenario.node[7].appl  acceleration  ETV
vector 161  scenario.node[7].appl  controllerAcceleration  ETV
vector 157  scenario.node[7].appl  speed  ETV
vector 158  scenario.node[7].appl  posx  ETV
vector 159  scenario.node[7].appl  posy  ETV
vector 80  scenario.node[3].prot  frontDelay  ETV
vector 78  scenario.node[3].prot  frontDelayId  ETV
vector 58  scenario.node[2].prot  frontDelay  ETV
vector 56  scenario.node[2].prot  frontDelayId  ETV
vector 168  scenario.node[7].prot  frontDelay  ETV
vector 166  scenario.node[7].prot  frontDelayId  ETV
vector 35  scenario.node[1].prot  leaderDelay  ETV
vector 33  scenario.node[1].prot  leaderDelayId  ETV
vector 36  scenario.node[1].prot  frontDelay  ETV
vector 34  scenario.node[1].prot  frontDelayId  ETV
vector 57  scenario.node[2].prot  leaderDelay  ETV
vector 55  scenario.node[2].prot  leaderDelayId  ETV
vector 79  scenario.node[3].prot  leaderDelay  ETV
vector 77  scenario.node[3].prot  leaderDelayId  ETV
vector 101  scenario.node[4].prot  leaderDelay  ETV
vector 99  scenario.node[4].prot  leaderDelayId  ETV
vector 123  scenario.node[5].prot  leaderDelay  ETV
vector 121  scenario.node[5].prot  leaderDelayId  ETV
vector 145  scenario.node[6].prot  leaderDelay  ETV
vector 143  scenario.node[6].prot  leaderDelayId  ETV
vector 167  scenario.node[7].prot  leaderDelay  ETV
vector 165  scenario.node[7].prot  leaderDelayId  ETV
vector 124  scenario.node[5].prot  frontDelay  ETV
vector 122  scenario.node[5].prot  frontDelayId  ETV
vector 102  scenario.node[4].prot  frontDelay  ETV
vector 100  scenario.node[4].prot  frontDelayId  ETV
vector 146  scenario.node[6].prot  frontDelay  ETV
vector 144  scenario.node[6].prot  frontDelayId  ETV
vector 8  scenario.node[0].prot  nodeId  ETV
vector 9  scenario.node[0].prot  busyTime  ETV
vector 10  scenario.node[0].prot  collisions  ETV
vector 30  scenario.node[1].prot  nodeId  ETV
vector 31  scenario.node[1].prot  busyTime  ETV
vector 32  scenario.node[1].prot  collisions  ETV
vector 52  scenario.node[2].prot  nodeId  ETV
vector 53  scenario.node[2].prot  busyTime  ETV
vector 54  scenario.node[2].prot  collisions  ETV
vector 74  scenario.node[3].prot  nodeId  ETV
vector 75  scenario.node[3].prot  busyTime  ETV
vector 76  scenario.node[3].prot  collisions  ETV
vector 96  scenario.node[4].prot  nodeId  ETV
vector 97  scenario.node[4].prot  busyTime  ETV
vector 98  scenario.node[4].prot  collisions  ETV
vector 118  scenario.node[5].prot  nodeId  ETV
vector 119  scenario.node[5].prot  busyTime  ETV
vector 120  scenario.node[5].prot  collisions  ETV
vector 140  scenario.node[6].prot  nodeId  ETV
vector 141  scenario.node[6].prot  busyTime  ETV
vector 142  scenario.node[6].prot  collisions  ETV
vector 162  scenario.node[7].prot  nodeId  ETV
vector 163  scenario.node[7].prot  busyTime  ETV
vector 164  scenario.node[7].prot  collisions  ETV
7	11097 13860 232 328174 1.11 59.91 589 -1.5 1.5 -14.445974034379 993.24092368185
6	24957 18594 232 328174 1.11 59.91 589 -1.4722746794938 1.4513434175793 -12.50726914995 675.29835222675
5	43551 12081 232 328174 1.11 59.91 589 36.55 36.55 21527.95 786846.5725
4	55632 17915 232 328174 1.11 59.91 589 175.4398567197 1813.0893222621 586441.61229964 715684322.28276
3	73547 17905 232 328174 1.11 59.91 589 26.487965859734 29.742492528104 16403.83880962 457295.15275867
1	91452 9725 232 328174 1.11 59.91 589 0 0 0 0
0	101177 10314 232 328174 1.11 59.91 589 -1 -1 -589 589
2	111491 9725 232 328174 1.11 59.91 589 0 0 0 0
10	121216 858 5102 328596 2 60 59 0 0 0 0
9	122074 1154 5102 328596 2 60 59 0.022969 0.02625 1.545469 0.040493199961
8	123228 799 5102 328596 2 60 59 0 0 0 0
29	124027 19143 233 328175 1.11 59.91 589 -1.5293265431491 1.5147272682206 -12.72052860001 737.2436013367
28	143170 19247 233 328175 1.11 59.91 589 -1.4370700289774 1.3689211213311 -6.6756842009081 518.61682112401
27	162417 12670 233 328175 1.11 59.91 589 36.55 36.55 21527.95 786846.5725
26	175087 18502 233 328175 1.11 59.91 589 155.55097122192 1793.6007947518 574703.61226623 692563834.81139
25	193589 18485 233 328175 1.11 59.91 589 26.672961971172 29.575007015286 16408.051525775 457434.51986789
23	212074 19522 233 328175 1.11 59.91 589 -0.72639944061039 0.7085930712855 -4.0876434637999 143.22737674074
22	231596 18487 233 328175 1.11 59.91 589 15.294734303973 16.812626420666 9382.0842877238 149544.33409898
24	250083 10314 233 328175 1.11 59.91 589 1 1 589 589
36	260397 23693 1032 328418 1.254912720029 59.954921167327 588 0.099897478639 0.100097197521 58.800021304879 5.8800053062136
35	284090 23693 1032 328418 1.254912720029 59.954921167327 588 0.099897478639 0.100097197521 58.800021304879 5.8800053062136
34	307783 16101 1032 328418 1.254912720029 59.954921167327 588 1 1 588 588
33	323884 16101 1032 328418 1.254912720029 59.954921167327 588 1 1 588 588
32	339985 858 5103 328597 2 60 59 0 0 0 0
31	340843 1213 5103 328597 2 60 59 0.022969 0.02625 1.545469 0.040493199961
30	342056 858 5103 328597 2 60 59 1 1 59 59
51	342914 19234 234 328176 1.11 59.91 589 -1.4940421391086 1.4261596489714 -6.2816858713429 563.05781804556
50	362148 19334 234 328176 1.11 59.91 589 -1.3487060388144 1.2317679963978 -0.14504424700412 396.33182593954
49	381482 12670 234 328176 1.11 59.91 589 36.55 36.55 21527.95 786846.5725
48	394152 18496 234 328176 1.11 59.91 589 135.66208572388 1773.7615994777 562965.02380688 669907908.17381
47	412648 18480 234 328176 1.11 59.91 589 26.816781288213 29.447869572497 16408.777034772 457402.60237373
45	431128 19538 234 328176 1.11 59.91 589 -0.6849596593368 0.63995180998676 -0.65875215489675 108.34295833808
44	450666 18508 234 328176 1.11 59.91 589 15.375821184681 16.739861272809 9382.6029695329 149539.19407557
46	469174 10314 234 328176 1.11 59.91 589 2 2 1178 2356
58	479488 23711 900 328286 1.229658990265 59.92965241676 588 0.099987920938 0.10001285872 58.799993284076 5.8799986668415
57	503199 23684 1038 328424 1.254912786371 59.954921233417 588 0.099897478518 0.100097197731 58.800021304627 5.8800053061632
56	526883 16127 900 328286 1.229658990265 59.92965241676 588 2 2 1176 2352
55	543010 16108 1038 328424 1.254912786371 59.954921233417 588 2 2 1176 2352
54	559118 858 5104 328598 2 60 59 0 0 0 0
53	559976 1213 5104 328598 2 60 59 0.022969 0.02625 1.545469 0.040493199961
52	561189 858 5104 328598 2 60 59 2 2 118 236
73	562047 19339 235 328177 1.11 59.91 589 -1.4034209316699 1.2866785491571 0.54536162262617 432.25171284133
72	581386 19441 235 328177 1.11 59.91 589 -1.2415340246246 1.0867442343201 4.8368866754011 305.47922721678
71	600827 12670 235 328177 1.11 59.91 589 36.55 36.55 21527.95 786846.5725
70	613497 18486 235 328177 1.11 59.91 589 115.77320022583 1753.6477142327 551227.23202064 647722024.05125
69	631983 18475 235 328177 1.11 59.91 589 26.931579451198 29.347524791249 16406.698587632 457231.90554932
67	650458 19552 235 328177 1.11 59.91 589 -0.63288698544969 0.56782454520026 2.079897582538 83.382835672697
66	670010 18512 235 328177 1.11 59.91 589 15.437371364843 16.686023283658 9381.7502172993 149496.51538868
68	688522 10314 235 328177 1.11 59.91 589 3 3 1767 5301
80	698836 23689 832 328218 1.213905923923 59.913899351522 588 0.099987705622 0.100012912716 58.79999328518 5.8799986671002
79	722525 23696 1044 328430 1.254912852714 59.954921300443 588 0.099897478336 0.100097197861 58.80002130531 5.8800053062998
78	746221 16115 832 328218 1.213905923923 59.913899351522 588 3 3 1764 5292
77	762336 16115 1044 328430 1.254912852714 59.954921300443 588 3 3 1764 5292
76	778451 858 5105 328599 2 60 59 0 0 0 0
75	779309 1213 5105 328599 2 60 59 0.022968 0.02625 1.545468 0.040493154024
74	780522 858 5105 328599 2 60 59 3 3 177 531
95	781380 16562 236 328178 1.11 59.91 589 -21.910643101724 1.5 -179.67371796471 9577.0420911287
94	797942 18827 236 328178 1.11 59.91 589 -9 1.4999999999912 56.61977875171 3017.6669785017
93	816769 12670 236 328178 1.11 59.91 589 36.55 36.55 21527.95 786846.5725
92	829439 18495 236 328178 1.11 59.91 589 95.884307098389 1435.9123588694 471924.12102701 452373208.43008
91	847934 18491 236 328178 1.11 59.91 589 0 33.437216779784 13430.025811824 355883.17887345
89	866425 19203 236 328178 1.11 59.91 589 -6.2591295258623 28.587829832065 2976.6244069406 64302.767012731
88	885628 18505 236 328178 1.11 59.91 589 15.490444452818 341.04203207791 76887.577538019 21058363.16798
90	904133 10314 236 328178 1.11 59.91 589 4 4 2356 9424
102	914447 24300 1246 328653 1.303563449793 60.003561929493 588 0.099987592616 0.100012876967 58.799998337281 5.8799996775616
101	938747 24274 1050 328436 1.254912919056 59.954922359617 588 0.099897486931 0.100097195786 58.800022298142 5.8800055048661
100	963021 16711 1246 328653 1.303563449793 60.003561929493 588 4 4 2352 9408
99	979732 16116 1050 328436 1.254912919056 59.954922359617 588 4 4 2352 9408
98	995848 858 5106 328600 2 60 59 0 0 0 0
97	996706 1213 5106 328600 2 60 59 0.022969 0.02625 1.545469 0.040493199961
96	997919 858 5106 328600 2 60 59 4 4 236 944
117	998777 19808 237 328179 1.11 59.91 589 -19.030686292991 2.104043808961 -135.13900275638 7691.8488976044
116	1018585 19400 237 328179 1.11 59.91 589 -9 1.9428813382928 53.792718113036 2986.0591570593
115	1037985 13259 237 328179 1.11 59.91 589 36.55 36.55 21527.95 786846.5725
114	1051244 19077 237 328179 1.11 59.91 589 75.995417785645 1413.3067233259 461460.92617589 436229546.9643
113	1070321 19064 237 328179 1.11 59.91 589 0 33.41994705886 13402.823918263 353393.25029045
111	1089385 20055 237 328179 1.11 59.91 589 -3.1722050444645 0.74725349583574 26.63569577372 398.07305770263
110	1109440 19085 237 328179 1.11 59.91 589 6.0781803866656 18.632942203157 8106.6508133386 119939.84477785
112	1128525 10903 237 328179 1.11 59.91 589 5 5 2945 14725
124	1139428 24305 1172 328552 1.265749383451 59.965745887569 588 0.099988112681 0.100012881996 58.799996361699 5.8799992823472
123	1163733 24289 1056 328442 1.254912985398 59.95492243502 588 0.099897487097 0.100097195891 58.800022307203 5.8800055066783
122	1188022 16715 1172 328552 1.265749383451 59.965745887569 588 5 5 2940 14700
121	1204737 16693 1056 328442 1.254912985398 59.95492243502 588 5 5 2940 14700
120	1221430 917 5107 328601 2 60 59 0 0 0 0
119	1222347 1272 5107 328601 2 60 59 0.022968 0.02625 1.545468 0.040493154024
118	1223619 917 5107 328601 2 60 59 5 5 295 1475
139	1224536 19766 238 328180 1.11 59.91 589 -16.973497561357 2.5001404693432 -99.476806135034 6421.0955387233
138	1244302 19447 238 328180 1.11 59.91 589 -9 2.2911317950068 53.536538132687 2943.4545638805
137	1263749 13259 238 328180 1.11 59.91 589 36.55 36.55 21527.95 786846.5725
136	1277008 19082 238 328180 1.11 59.91 589 56.106530380249 1390.6932929504 451059.93381359 420611633.60393
135	1296090 19063 238 328180 1.11 59.91 589 0 33.402691648443 13375.564974541 351082.86481104
133	1315153 20044 238 328180 1.11 59.91 589 -3.4554827343894 0.76950282293595 26.72101654084 445.81617779733
132	1335197 19078 238 328180 1.11 59.91 589 5.1965617056134 18.62635365908 8044.44718339 118653.90056889
134	1354275 10903 238 328180 1.11 59.91 589 6 6 3534 21204
146	1365178 24276 1312 328707 1.305159582477 60.005158080317 588 0.099988021716 0.100012878434 58.799998355421 5.8799996811236
145	1389454 24269 1062 328448 1.25491305174 59.954922510447 588 0.099897487344 0.10009719606 58.800022316288 5.8800055084952
144	1413723 16698 1312 328707 1.305159582477 60.005158080317 588 6 6 3528 21168
143	1430421 16685 1062 328448 1.25491305174 59.954922510447 588 6 6 3528 21168
142	1447106 917 5108 328602 2 60 59 0 0 0 0
141	1448023 1272 5108 328602 2 60 59 0.022969 0.02625 1.545469 0.040493199961
140	1449295 917 5108 328602 2 60 59 6 6 354 2124
161	1450212 19817 239 328181 1.11 59.91 589 -15.341635103679 2.7833331945496 -69.789758382996 5483.2008969712
160	1470029 19415 239 328181 1.11 59.91 589 -9 2.5 54.787953655186 2892.3488188613
159	1489444 13259 239 328181 1.11 59.91 589 36.55 36.55 21527.95 786846.5725
158	1502703 19088 239 328181 1.11 59.91 589 36.217641067505 1368.0751237425 440702.59572749 405481040.63663
157	1521791 19060 239 328181 1.11 59.91 589 0 33.385388157977 13348.31771356 348885.98819967
155	1540851 20049 239 328181 1.11 59.91 589 -3.639166416865 0.93984687864135 26.711895599735 477.89927580086
154	1560900 19077 239 328181 1.11 59.91 589 4.6265859167721 18.618686665629 8000.793139828 117682.32784047
156	1579977 10903 239 328181 1.11 59.91 589 7 7 4123 28861
168	1590880 24290 975 328361 1.254434321976 59.954428769796 588 0.099987820958 0.100012875583 58.799994305401 5.8799988711282
167	1615170 24284 1068 328454 1.254913118082 59.954922585892 588 0.099897487505 0.100097196272 58.800022325391 5.8800055103158
166	1639454 16703 975 328361 1.254434321976 59.954428769796 588 7 7 4116 28812
165	1656157 16700 1068 328454 1.254913118082 59.954922585892 588 7 7 4116 28812
164	1672857 917 5109 328603 2 60 59 0 0 0 0
163	1673774 1272 5109 328603 2 60 59 0.022969 0.02625 1.545469 0.040493199961
162	1675046 917 5109 328603 2 60 59 7 7 413 2891
