file 964574 1512144375                                          
version 2
run SinusoidalAccInjectionAttack-291-20171201-17:05:57-90923
attr CACCSpacing 20
attr attackAcc 30
attr attackPos 7
attr attackSpeed 150
attr attackStart 30
attr attacker 4
attr beaconInterval 0.1
attr configname SinusoidalAccInjectionAttack
attr controller 2
attr datetime 20171201-17:05:57
attr experiment SinusoidalAccInjectionAttack
attr fakeAcc "(4 == 4)"
attr fakePos "(4 == 2)"
attr fakeSpeed "(4 == 3)"
attr inifile omnetpp_291.ini
attr iterationvars "$attacker=4, $attackSpeed=150, $attackPos=7, $attackAcc=30, $leaderSpeed=150, $controller=2, $CACCSpacing=20, $sController=\"PLOEG\", $attackStart=30, $0=2, $1=0.5, $nCars=8, $platoonSize=8, $nLanes=1, $beaconInterval=0.1, $priority=2, $packetSize=200, $ploegH=0.5, $leaderHeadway=1.2, $fakeSpeed=(4 == 3), $fakeAcc=(4 == 4), $fakePos=(4 == 2)"
attr iterationvarsf attacker=4,attackSpeed=150,attackPos=7,attackAcc=30,leaderSpeed=150,controller=2,CACCSpacing=20,sController=PLOEG,attackStart=30,2,0.5,nCars=8,platoonSize=8,nLanes=1,beaconInterval=0.1,priority=2,packetSize=200,ploegH=0.5,leaderHeadway=1.2,fakeSpeed=(4_==_3),fakeAcc=(4_==_4),fakePos=(4_==_2)-
attr leaderHeadway 1.2
attr leaderSpeed 150
attr measurement "$attacker=4, $attackSpeed=150, $attackPos=7, $attackAcc=30, $leaderSpeed=150, $controller=2, $CACCSpacing=20, $sController=\"PLOEG\", $attackStart=30, $0=2, $1=0.5, $nCars=8, $platoonSize=8, $nLanes=1, $beaconInterval=0.1, $priority=2, $packetSize=200, $ploegH=0.5, $leaderHeadway=1.2, $fakeSpeed=(4 == 3), $fakeAcc=(4 == 4), $fakePos=(4 == 2)"
attr nCars 8
attr nLanes 1
attr network scenario
attr packetSize 200
attr platoonSize 8
attr ploegH 0.5
attr priority 2
attr processid 90923
attr repetition 1
attr replication #1
attr resultdir results
attr runnumber 291
attr sController "\"PLOEG\""
attr seedset 1
param **.coreDebug false
param **.debug false
param **.headway 0.1s
param **.numberOfCars 8
param **.numberOfCarsPerPlatoon 8
param **.numberOfLanes 1
param **.numericController 2
param **.traffic.nCars 8
param **.traffic.nLanes 1
param **.traffic.platoonInsertDistance 2m
param **.traffic.platoonInsertHeadway 0.5s
param **.traffic.platoonInsertSpeed 150kmph
param **.traffic.platoonInsertTime "1 s"
param **.traffic.platoonLeaderHeadway 1.2s
param **.traffic.platoonSize 8
param **.traffic.platooningVType "\"vtypeauto\""
param **.traffic_type "\"PlatoonsTrafficManager\""
param *.**.nic.mac1609_4.bitrate 6Mbps
param *.**.nic.mac1609_4.txPower 100mW
param *.**.nic.mac1609_4.useServiceChannel false
param *.**.nic.phy80211p.analogueModels "xmldoc(\"config.xml\")"
param *.**.nic.phy80211p.decider "xmldoc(\"config.xml\")"
param *.**.nic.phy80211p.maxTXPower 100mW
param *.**.nic.phy80211p.sensitivity -94dBm
param *.**.nic.phy80211p.thermalNoise -95dBm
param *.**.nic.phy80211p.usePropagationDelay true
param *.**.nic.phy80211p.useThermalNoise true
param *.annotations.draw false
param *.connectionManager.alpha 2.0
param *.connectionManager.carrierFrequency "5.890e9 Hz"
param *.connectionManager.pMax 100mW
param *.connectionManager.sat -94dBm
param *.connectionManager.sendDirect true
param *.manager.autoShutdown true
param *.manager.commandLine "\"sumo --remote-port $port --seed $seed --configuration-file $configFile\""
param *.manager.configFile "\"./sumocfg/freeway.sumo.cfg\""
param *.manager.host "\"localhost\""
param *.manager.margin 25
param *.manager.moduleDisplayString "\"\""
param *.manager.moduleName "\"node\""
param *.manager.moduleType "\"Car\""
param *.manager.updateInterval 0.01s
param *.node[*].appl.attackStart 30s
param *.node[*].appl.attackerType 4
param *.node[*].appl.simulationDuration "60 s"
param *.node[*].appl_type "\"SimplePlatooningApp\""
param *.node[*].helper.nCars 8
param *.node[*].helper.nLanes 1
param *.node[*].helper.platoonSize 8
param *.node[*].helper_type "\"PositionHelper\""
param *.node[*].mobility.x 0
param *.node[*].mobility.y 0
param *.node[*].mobility.z 1.895
param *.node[*].prot.attackStart 30s
param *.node[*].prot.attackerType 4
param *.node[*].prot.attackingNode 3
param *.node[*].prot.beaconingInterval 0.1s
param *.node[*].prot.fakeAcc "(4 == 4)"
param *.node[*].prot.fakePos "(4 == 2)"
param *.node[*].prot.fakeSpeed "(4 == 3)"
param *.node[*].prot.maliciousAcc "30 mpss"
param *.node[*].prot.maliciousSpeed 150kmph
param *.node[*].prot.packetSize 200
param *.node[*].prot.priority 2
param *.node[*].prot.shiftX "7 m"
param *.node[*].prot.useControllerAcceleration true
param *.node[*].protocol_type "\"SimplePlatooningBeaconing\""
param *.node[*].scenario.accHeadway 0.1s
param *.node[*].scenario.caccC1 0.5
param *.node[*].scenario.caccOmegaN "0.2 Hz"
param *.node[*].scenario.caccSpacing 20m
param *.node[*].scenario.caccXi 1
param *.node[*].scenario.controller "\"PLOEG\""
param *.node[*].scenario.engineTau "0.5 s"
param *.node[*].scenario.leaderHeadway 1.2s
param *.node[*].scenario.leaderSpeed 150kmph
param *.node[*].scenario.ploegH 0.5s
param *.node[*].scenario.ploegKd 0.7
param *.node[*].scenario.ploegKp 0.2
param *.node[*].scenario.useRealisticEngine false
param *.node[*].scenario_type "\"SinusoidalScenario\""
param *.node[*].unicast.packetLossRate 0
param *.obstacles.debug false
param *.playgroundSizeX 65000m
param *.playgroundSizeY 25000m
param *.playgroundSizeZ 50m
param *.world.use2D false
param *.world.useTorus false

vector 0  scenario.node[0].appl  distance  ETV
vector 1  scenario.node[0].appl  relativeSpeed  ETV
vector 2  scenario.node[0].appl  nodeId  ETV
vector 6  scenario.node[0].appl  acceleration  ETV
vector 7  scenario.node[0].appl  controllerAcceleration  ETV
vector 3  scenario.node[0].appl  speed  ETV
vector 4  scenario.node[0].appl  posx  ETV
vector 5  scenario.node[0].appl  posy  ETV
vector 22  scenario.node[1].appl  distance  ETV
vector 23  scenario.node[1].appl  relativeSpeed  ETV
vector 24  scenario.node[1].appl  nodeId  ETV
vector 28  scenario.node[1].appl  acceleration  ETV
vector 29  scenario.node[1].appl  controllerAcceleration  ETV
vector 25  scenario.node[1].appl  speed  ETV
vector 26  scenario.node[1].appl  posx  ETV
vector 27  scenario.node[1].appl  posy  ETV
vector 44  scenario.node[2].appl  distance  ETV
vector 45  scenario.node[2].appl  relativeSpeed  ETV
vector 46  scenario.node[2].appl  nodeId  ETV
vector 50  scenario.node[2].appl  acceleration  ETV
vector 51  scenario.node[2].appl  controllerAcceleration  ETV
vector 47  scenario.node[2].appl  speed  ETV
vector 48  scenario.node[2].appl  posx  ETV
vector 49  scenario.node[2].appl  posy  ETV
vector 66  scenario.node[3].appl  distance  ETV
vector 67  scenario.node[3].appl  relativeSpeed  ETV
vector 68  scenario.node[3].appl  nodeId  ETV
vector 72  scenario.node[3].appl  acceleration  ETV
vector 73  scenario.node[3].appl  controllerAcceleration  ETV
vector 69  scenario.node[3].appl  speed  ETV
vector 70  scenario.node[3].appl  posx  ETV
vector 71  scenario.node[3].appl  posy  ETV
vector 88  scenario.node[4].appl  distance  ETV
vector 89  scenario.node[4].appl  relativeSpeed  ETV
vector 90  scenario.node[4].appl  nodeId  ETV
vector 94  scenario.node[4].appl  acceleration  ETV
vector 95  scenario.node[4].appl  controllerAcceleration  ETV
vector 91  scenario.node[4].appl  speed  ETV
vector 92  scenario.node[4].appl  posx  ETV
vector 93  scenario.node[4].appl  posy  ETV
vector 110  scenario.node[5].appl  distance  ETV
vector 111  scenario.node[5].appl  relativeSpeed  ETV
vector 112  scenario.node[5].appl  nodeId  ETV
vector 116  scenario.node[5].appl  acceleration  ETV
vector 117  scenario.node[5].appl  controllerAcceleration  ETV
vector 113  scenario.node[5].appl  speed  ETV
vector 114  scenario.node[5].appl  posx  ETV
vector 115  scenario.node[5].appl  posy  ETV
vector 132  scenario.node[6].appl  distance  ETV
vector 133  scenario.node[6].appl  relativeSpeed  ETV
vector 134  scenario.node[6].appl  nodeId  ETV
vector 138  scenario.node[6].appl  acceleration  ETV
vector 139  scenario.node[6].appl  controllerAcceleration  ETV
vector 135  scenario.node[6].appl  speed  ETV
vector 136  scenario.node[6].appl  posx  ETV
vector 137  scenario.node[6].appl  posy  ETV
vector 154  scenario.node[7].appl  distance  ETV
vector 155  scenario.node[7].appl  relativeSpeed  ETV
vector 156  scenario.node[7].appl  nodeId  ETV
vector 160  scenario.node[7].appl  acceleration  ETV
vector 161  scenario.node[7].appl  controllerAcceleration  ETV
vector 157  scenario.node[7].appl  speed  ETV
vector 158  scenario.node[7].appl  posx  ETV
vector 159  scenario.node[7].appl  posy  ETV
vector 58  scenario.node[2].prot  frontDelay  ETV
vector 56  scenario.node[2].prot  frontDelayId  ETV
vector 102  scenario.node[4].prot  frontDelay  ETV
vector 100  scenario.node[4].prot  frontDelayId  ETV
vector 146  scenario.node[6].prot  frontDelay  ETV
vector 144  scenario.node[6].prot  frontDelayId  ETV
vector 168  scenario.node[7].prot  frontDelay  ETV
vector 166  scenario.node[7].prot  frontDelayId  ETV
vector 124  scenario.node[5].prot  frontDelay  ETV
vector 122  scenario.node[5].prot  frontDelayId  ETV
vector 35  scenario.node[1].prot  leaderDelay  ETV
vector 33  scenario.node[1].prot  leaderDelayId  ETV
vector 36  scenario.node[1].prot  frontDelay  ETV
vector 34  scenario.node[1].prot  frontDelayId  ETV
vector 57  scenario.node[2].prot  leaderDelay  ETV
vector 55  scenario.node[2].prot  leaderDelayId  ETV
vector 79  scenario.node[3].prot  leaderDelay  ETV
vector 77  scenario.node[3].prot  leaderDelayId  ETV
vector 101  scenario.node[4].prot  leaderDelay  ETV
vector 99  scenario.node[4].prot  leaderDelayId  ETV
vector 123  scenario.node[5].prot  leaderDelay  ETV
vector 121  scenario.node[5].prot  leaderDelayId  ETV
vector 145  scenario.node[6].prot  leaderDelay  ETV
vector 143  scenario.node[6].prot  leaderDelayId  ETV
vector 167  scenario.node[7].prot  leaderDelay  ETV
vector 165  scenario.node[7].prot  leaderDelayId  ETV
vector 80  scenario.node[3].prot  frontDelay  ETV
vector 78  scenario.node[3].prot  frontDelayId  ETV
vector 8  scenario.node[0].prot  nodeId  ETV
vector 9  scenario.node[0].prot  busyTime  ETV
vector 10  scenario.node[0].prot  collisions  ETV
vector 30  scenario.node[1].prot  nodeId  ETV
vector 31  scenario.node[1].prot  busyTime  ETV
vector 32  scenario.node[1].prot  collisions  ETV
vector 52  scenario.node[2].prot  nodeId  ETV
vector 53  scenario.node[2].prot  busyTime  ETV
vector 54  scenario.node[2].prot  collisions  ETV
vector 74  scenario.node[3].prot  nodeId  ETV
vector 75  scenario.node[3].prot  busyTime  ETV
vector 76  scenario.node[3].prot  collisions  ETV
vector 96  scenario.node[4].prot  nodeId  ETV
vector 97  scenario.node[4].prot  busyTime  ETV
vector 98  scenario.node[4].prot  collisions  ETV
vector 118  scenario.node[5].prot  nodeId  ETV
vector 119  scenario.node[5].prot  busyTime  ETV
vector 120  scenario.node[5].prot  collisions  ETV
vector 140  scenario.node[6].prot  nodeId  ETV
vector 141  scenario.node[6].prot  busyTime  ETV
vector 142  scenario.node[6].prot  collisions  ETV
vector 162  scenario.node[7].prot  nodeId  ETV
vector 163  scenario.node[7].prot  busyTime  ETV
vector 164  scenario.node[7].prot  collisions  ETV
7	11095 8126 232 189289 1.11 35.01 340 -1.5 1.5 -13.177980802834 539.358830972
6	19221 10681 232 189289 1.11 35.01 340 -1.4722746794739 1.4513407705138 -12.857032578162 366.44023093486
5	29902 6852 232 189289 1.11 35.01 340 36.55 36.55 12427 454206.85
4	36754 10224 232 189289 1.11 35.01 340 224.60538749655 1641.2957894904 317586.47631384 353825187.68237
3	46978 10201 232 189289 1.11 35.01 340 40.376926150007 43.631381416411 14208.122683532 593987.91716361
1	57179 5492 232 189289 1.11 35.01 340 0 0 0 0
0	62671 5832 232 189289 1.11 35.01 340 -1 -1 -340 340
2	68503 5492 232 189289 1.11 35.01 340 0 0 0 0
10	73995 483 5168 189212 2 35 34 0 0 0 0
9	74478 654 5168 189212 2 35 34 0.023297 0.02625 0.889547 0.023281812709
8	75132 449 5168 189212 2 35 34 0 0 0 0
29	75581 10757 233 189290 1.11 35.01 340 -1.558991505616 1.5 -13.308874507758 410.76599770337
28	86338 11046 233 189290 1.11 35.01 340 -1.4671853951953 1.3715137188953 -7.5552955456331 288.73603170146
27	97384 7192 233 189290 1.11 35.01 340 36.55 36.55 12427 454206.85
26	104576 10553 233 189290 1.11 35.01 340 197.77205924988 1614.9099190175 308430.00515271 336974482.96292
25	115129 10556 233 189290 1.11 35.01 340 40.547152189389 43.483209368962 14212.789573503 594327.74193817
23	125685 11212 233 189290 1.11 35.01 340 -0.76538731949483 0.75523342629737 -4.5383196451074 88.112798401977
22	136897 10567 233 189290 1.11 35.01 340 22.243061293093 23.807231956369 7796.564498929 178845.03808736
24	147464 5832 233 189290 1.11 35.01 340 1 1 340 340
36	153296 13501 1238 189174 1.297803685189 34.997807712805 338 0.099999373863 0.100012461658 33.800003459717 3.3800006943656
35	166797 13501 1238 189174 1.297803685189 34.997807712805 338 0.099999373863 0.100012461658 33.800003459717 3.3800006943656
34	180298 9146 1238 189174 1.297803685189 34.997807712805 338 1 1 338 338
33	189444 9146 1238 189174 1.297803685189 34.997807712805 338 1 1 338 338
32	198590 483 5169 189213 2 35 34 0 0 0 0
31	199073 688 5169 189213 2 35 34 0.023297 0.02625 0.889547 0.023281812709
30	199761 483 5169 189213 2 35 34 1 1 34 34
51	200244 11032 234 189291 1.11 35.01 340 -1.5234272098735 1.4335767908622 -7.2218559181034 313.60813349856
50	211276 11109 234 189291 1.11 35.01 340 -1.3731566139931 1.2394045904777 -0.97273898529266 219.16249558665
49	222385 7192 234 189291 1.11 35.01 340 36.55 36.55 12427 454206.85
48	229577 10561 234 189291 1.11 35.01 340 170.93873100281 1588.1713663477 299282.85003926 320634520.49552
47	240138 10547 234 189291 1.11 35.01 340 40.690470825153 43.354884588849 14213.968353513 594386.26406208
45	250685 11189 234 189291 1.11 35.01 340 -0.69754156547199 0.64486250566596 -1.1032270543275 59.895870555706
44	261874 10554 234 189291 1.11 35.01 340 22.311824147455 23.693378911375 7787.1786890487 178397.74146639
46	272428 5832 234 189291 1.11 35.01 340 2 2 680 1360
58	278260 13531 832 189333 1.212436521607 35.012439980441 339 0.0999993732 0.100012458252 33.900002890935 3.3900005806093
57	291791 13503 1244 189180 1.297803774696 34.997807802039 338 0.099999373642 0.100012461483 33.800003459444 3.380000694311
56	305294 9167 832 189333 1.212436521607 35.012439980441 339 2 2 678 1356
55	314461 9136 1244 189180 1.297803774696 34.997807802039 338 2 2 676 1352
54	323597 483 5170 189214 2 35 34 0 0 0 0
53	324080 688 5170 189214 2 35 34 0.023296 0.02625 0.889546 0.023281766116
52	324768 483 5170 189214 2 35 34 2 2 68 136
73	325251 11068 235 189292 1.11 35.01 340 -1.43275942614 1.29869133882 -0.29290479553691 238.66327940255
72	336319 11132 235 189292 1.11 35.01 340 -1.2644129432765 1.0989904417947 4.3047268274556 167.30950076851
71	347451 7192 235 189292 1.11 35.01 340 36.55 36.55 12427 454206.85
70	354643 10559 235 189292 1.11 35.01 340 144.10539512634 1561.1434848672 290136.32707113 304787719.40169
69	365202 10564 235 189292 1.11 35.01 340 40.807479373812 43.253016544923 14212.20507726 594209.17487656
67	375766 11254 235 189292 1.11 35.01 340 -0.64498588989368 0.57378923491053 1.7730036429025 45.589801276782
66	387020 10560 235 189292 1.11 35.01 340 22.374967977369 23.638916103552 7786.4877026013 178357.69040154
68	397580 5832 235 189292 1.11 35.01 340 3 3 1020 3060
80	403412 13496 1312 189257 1.307225864202 35.007216892211 338 0.099999373476 0.100012456937 33.79999046011 3.3799980942907
79	416908 13492 1250 189186 1.297803864202 34.997807892229 338 0.099999373478 0.100012461409 33.800003460128 3.3800006944478
78	430400 9140 1312 189257 1.307225864202 35.007216892211 338 3 3 1014 3042
77	439540 9130 1250 189186 1.297803864202 34.997807892229 338 3 3 1014 3042
76	448670 483 5171 189215 2 35 34 0 0 0 0
75	449153 688 5171 189215 2 35 34 0.023297 0.02625 0.889547 0.023281812709
74	449841 483 5171 189215 2 35 34 3 3 102 306
117	450324 11318 237 189294 1.11 35.01 340 -1.1995097504326 1.5 57.162303587521 181.11478941021
116	461642 11515 237 189294 1.11 35.01 340 -1.0511923272531 1.4894277554234 55.774624544543 143.97425214015
115	473157 7532 237 189294 1.11 35.01 340 36.55 36.55 12427 454206.85
114	480689 10896 237 189294 1.11 35.01 340 90.43872718811 1521.2299458135 272088.32966265 275286346.56684
113	491585 10896 237 189294 1.11 35.01 340 40.999664012214 47.231097659306 14351.528868484 606338.4914711
111	502481 11530 237 189294 1.11 35.01 340 -0.53713297488246 4.6693644909477 85.008925846776 246.76881993752
110	514011 10896 237 189294 1.11 35.01 340 22.477958341692 31.178022934563 7911.4527371849 184650.35309967
112	524907 6172 237 189294 1.11 35.01 340 5 5 1700 8500
124	531079 13831 1178 189120 1.297390327164 34.997381458483 338 0.099999379386 0.100012456408 33.79999056342 3.3799981149527
123	544910 13833 1262 189198 1.297804043215 34.997808025706 338 0.099999371801 0.100012461528 33.800003414592 3.3800006853406
122	558743 9472 1178 189120 1.297390327164 34.997381458483 338 5 5 1690 8450
121	568215 9482 1262 189198 1.297804043215 34.997808025706 338 5 5 1690 8450
120	577697 517 5173 189217 2 35 34 0 0 0 0
119	578214 722 5173 189217 2 35 34 0.023297 0.02625 0.889547 0.023281812709
118	578936 517 5173 189217 2 35 34 5 5 170 850
139	579453 11471 238 189295 1.11 35.01 340 -1.0923885407485 1.5 56.293574359332 152.22141059124
138	590924 11526 238 189295 1.11 35.01 340 -0.95900121525716 1.4699860044573 52.997670431527 123.10250360176
137	602450 7532 238 189295 1.11 35.01 340 36.55 36.55 12427 454206.85
136	609982 10895 238 189295 1.11 35.01 340 63.605395126343 1491.7436956083 262883.27086586 260733665.35522
135	620877 10906 238 189295 1.11 35.01 340 41.079055470805 46.935824271066 14324.899576484 603956.52675016
133	631783 11552 238 189295 1.11 35.01 340 -0.4897793697104 0.71681276490165 26.071545753816 31.376166955618
132	643335 10883 238 189295 1.11 35.01 340 22.520255936874 25.480344737385 7844.5262109532 181100.10273075
134	654218 6172 238 189295 1.11 35.01 340 6 6 2040 12240
146	660390 13892 970 189465 1.248713879633 35.048704301775 339 0.099999371439 0.100012454658 33.899989854243 3.3899979731177
145	674282 13850 1268 189204 1.297804132721 34.997808124041 338 0.099999371906 0.100012461645 33.800003423421 3.3800006871064
144	688132 9519 970 189465 1.248713879633 35.048704301775 339 6 6 2034 12204
143	697651 9489 1268 189204 1.297804132721 34.997808124041 338 6 6 2028 12168
142	707140 517 5174 189218 2 35 34 0 0 0 0
141	707657 722 5174 189218 2 35 34 0.023297 0.02625 0.889547 0.023281812709
140	708379 517 5174 189218 2 35 34 6 6 204 1224
161	708896 11522 239 189296 1.11 35.01 340 -0.99893976764867 1.4888436594701 53.460710140995 130.00684126248
160	720418 11548 239 189296 1.11 35.01 340 -0.87861071067437 1.4393068303036 48.313927869971 104.45588926694
159	731966 7532 239 189296 1.11 35.01 340 36.55 36.55 12427 454206.85
158	739498 10894 239 189296 1.11 35.01 340 36.772060680389 1462.4775755757 253690.60640399 246712782.98934
157	750392 10885 239 189296 1.11 35.01 340 41.148620864977 46.450945549643 14300.405025305 601777.75464488
155	761277 11598 239 189296 1.11 35.01 340 -0.44817298808979 0.70152628730764 23.964574475326 26.589548834142
154	772875 10901 239 189296 1.11 35.01 340 22.55726126578 25.256422458247 7832.1745708412 180500.74313098
156	783776 6172 239 189296 1.11 35.01 340 7 7 2380 16660
168	789948 13884 1040 189535 1.263894969139 35.063885399475 339 0.099999371599 0.100012456137 33.899989862437 3.3899979747565
167	803832 13861 1274 189210 1.297804222228 34.99780822163 338 0.099999372074 0.100012461748 33.800003431503 3.3800006887228
166	817693 9510 1040 189535 1.263894969139 35.063885399475 339 7 7 2373 16611
165	827203 9493 1274 189210 1.297804222228 34.99780822163 338 7 7 2366 16562
164	836696 517 5175 189219 2 35 34 0 0 0 0
163	837213 722 5175 189219 2 35 34 0.023297 0.02625 0.889547 0.023281812709
162	837935 517 5175 189219 2 35 34 7 7 238 1666
88	838452 10568 236 189575 1.11 35.08 341 0 23.593172052658 7419.3311471186 166496.97619961
89	849020 11245 236 189575 1.11 35.08 341 -10.052057062349 0.50343743070668 -235.46574338537 1520.3966944943
90	860265 5850 236 189575 1.11 35.08 341 4 4 1364 5456
91	866115 10580 236 189575 1.11 35.08 341 40.910022588843 52.100462150254 14489.676178465 617178.68083004
92	876695 10582 236 189575 1.11 35.08 341 117.27205924988 1560.1453883884 282921.64872518 292975930.9747
93	887277 7214 236 189575 1.11 35.08 341 36.55 36.55 12463.55 455542.7525
94	894491 11162 236 189575 1.11 35.08 341 -1.1539414964787 2.4999999999999 106.29219841398 330.95274402603
95	905653 10882 236 189575 1.11 35.08 341 -1.3157129328073 22.490129967072 669.79940645498 13121.809555924
96	916535 483 5172 189216 2 35 34 4 4 136 544
97	917018 688 5172 189216 2 35 34 0.023297 0.02625 0.889547 0.023281812709
98	917706 483 5172 189216 2 35 34 0 0 0 0
99	918189 9146 1256 189192 1.297803953708 34.997807908364 338 4 4 1352 5408
100	927335 9514 902 189397 1.23504070062 35.035044085419 339 4 4 1356 5424
101	936849 13841 1256 189192 1.297803953708 34.997807908364 338 0.099999370274 0.100012461436 33.800003386757 3.3800006797736
102	950690 13884 902 189397 1.23504070062 35.035044085419 339 0.099999369785 0.10001245808 33.9000028169 3.3900005658022
