file 870277 1512143122                                          
version 2
run SinusoidalAccInjectionAttack-42-20171201-16:45:04-113570
attr CACCSpacing 5
attr attackAcc -30
attr attackPos 7
attr attackSpeed 150
attr attackStart 30
attr attacker 4
attr beaconInterval 0.1
attr configname SinusoidalAccInjectionAttack
attr controller 1
attr datetime 20171201-16:45:04
attr experiment SinusoidalAccInjectionAttack
attr fakeAcc "(4 == 4)"
attr fakePos "(4 == 2)"
attr fakeSpeed "(4 == 3)"
attr inifile omnetpp_42.ini
attr iterationvars "$attacker=4, $attackSpeed=150, $attackPos=7, $attackAcc=-30, $leaderSpeed=150, $controller=1, $CACCSpacing=5, $sController=\"CACC\", $attackStart=30, $0=5, $1=0, $nCars=8, $platoonSize=8, $nLanes=1, $beaconInterval=0.1, $priority=2, $packetSize=200, $ploegH=0.5, $leaderHeadway=1.2, $fakeSpeed=(4 == 3), $fakeAcc=(4 == 4), $fakePos=(4 == 2)"
attr iterationvarsf attacker=4,attackSpeed=150,attackPos=7,attackAcc=-30,leaderSpeed=150,controller=1,CACCSpacing=5,sController=CACC,attackStart=30,5,0,nCars=8,platoonSize=8,nLanes=1,beaconInterval=0.1,priority=2,packetSize=200,ploegH=0.5,leaderHeadway=1.2,fakeSpeed=(4_==_3),fakeAcc=(4_==_4),fakePos=(4_==_2)-
attr leaderHeadway 1.2
attr leaderSpeed 150
attr measurement "$attacker=4, $attackSpeed=150, $attackPos=7, $attackAcc=-30, $leaderSpeed=150, $controller=1, $CACCSpacing=5, $sController=\"CACC\", $attackStart=30, $0=5, $1=0, $nCars=8, $platoonSize=8, $nLanes=1, $beaconInterval=0.1, $priority=2, $packetSize=200, $ploegH=0.5, $leaderHeadway=1.2, $fakeSpeed=(4 == 3), $fakeAcc=(4 == 4), $fakePos=(4 == 2)"
attr nCars 8
attr nLanes 1
attr network scenario
attr packetSize 200
attr platoonSize 8
attr ploegH 0.5
attr priority 2
attr processid 113570
attr repetition 2
attr replication #2
attr resultdir results
attr runnumber 42
attr sController "\"CACC\""
attr seedset 2
param **.coreDebug false
param **.debug false
param **.headway 0.1s
param **.numberOfCars 8
param **.numberOfCarsPerPlatoon 8
param **.numberOfLanes 1
param **.numericController 1
param **.traffic.nCars 8
param **.traffic.nLanes 1
param **.traffic.platoonInsertDistance 5m
param **.traffic.platoonInsertHeadway 0s
param **.traffic.platoonInsertSpeed 150kmph
param **.traffic.platoonInsertTime "1 s"
param **.traffic.platoonLeaderHeadway 1.2s
param **.traffic.platoonSize 8
param **.traffic.platooningVType "\"vtypeauto\""
param **.traffic_type "\"PlatoonsTrafficManager\""
param *.**.nic.mac1609_4.bitrate 6Mbps
param *.**.nic.mac1609_4.txPower 100mW
param *.**.nic.mac1609_4.useServiceChannel false
param *.**.nic.phy80211p.analogueModels "xmldoc(\"config.xml\")"
param *.**.nic.phy80211p.decider "xmldoc(\"config.xml\")"
param *.**.nic.phy80211p.maxTXPower 100mW
param *.**.nic.phy80211p.sensitivity -94dBm
param *.**.nic.phy80211p.thermalNoise -95dBm
param *.**.nic.phy80211p.usePropagationDelay true
param *.**.nic.phy80211p.useThermalNoise true
param *.annotations.draw false
param *.connectionManager.alpha 2.0
param *.connectionManager.carrierFrequency "5.890e9 Hz"
param *.connectionManager.pMax 100mW
param *.connectionManager.sat -94dBm
param *.connectionManager.sendDirect true
param *.manager.autoShutdown true
param *.manager.commandLine "\"sumo --remote-port $port --seed $seed --configuration-file $configFile\""
param *.manager.configFile "\"./sumocfg/freeway.sumo.cfg\""
param *.manager.host "\"localhost\""
param *.manager.margin 25
param *.manager.moduleDisplayString "\"\""
param *.manager.moduleName "\"node\""
param *.manager.moduleType "\"Car\""
param *.manager.updateInterval 0.01s
param *.node[*].appl.attackStart 30s
param *.node[*].appl.attackerType 4
param *.node[*].appl.simulationDuration "60 s"
param *.node[*].appl_type "\"SimplePlatooningApp\""
param *.node[*].helper.nCars 8
param *.node[*].helper.nLanes 1
param *.node[*].helper.platoonSize 8
param *.node[*].helper_type "\"PositionHelper\""
param *.node[*].mobility.x 0
param *.node[*].mobility.y 0
param *.node[*].mobility.z 1.895
param *.node[*].prot.attackStart 30s
param *.node[*].prot.attackerType 4
param *.node[*].prot.attackingNode 3
param *.node[*].prot.beaconingInterval 0.1s
param *.node[*].prot.fakeAcc "(4 == 4)"
param *.node[*].prot.fakePos "(4 == 2)"
param *.node[*].prot.fakeSpeed "(4 == 3)"
param *.node[*].prot.maliciousAcc "-30 mpss"
param *.node[*].prot.maliciousSpeed 150kmph
param *.node[*].prot.packetSize 200
param *.node[*].prot.priority 2
param *.node[*].prot.shiftX "7 m"
param *.node[*].prot.useControllerAcceleration true
param *.node[*].protocol_type "\"SimplePlatooningBeaconing\""
param *.node[*].scenario.accHeadway 0.1s
param *.node[*].scenario.caccC1 0.5
param *.node[*].scenario.caccOmegaN "0.2 Hz"
param *.node[*].scenario.caccSpacing 5m
param *.node[*].scenario.caccXi 1
param *.node[*].scenario.controller "\"CACC\""
param *.node[*].scenario.engineTau "0.5 s"
param *.node[*].scenario.leaderHeadway 1.2s
param *.node[*].scenario.leaderSpeed 150kmph
param *.node[*].scenario.ploegH 0.5s
param *.node[*].scenario.ploegKd 0.7
param *.node[*].scenario.ploegKp 0.2
param *.node[*].scenario.useRealisticEngine false
param *.node[*].scenario_type "\"SinusoidalScenario\""
param *.node[*].unicast.packetLossRate 0
param *.obstacles.debug false
param *.playgroundSizeX 65000m
param *.playgroundSizeY 25000m
param *.playgroundSizeZ 50m
param *.world.use2D false
param *.world.useTorus false

vector 0  scenario.node[0].appl  distance  ETV
vector 1  scenario.node[0].appl  relativeSpeed  ETV
vector 2  scenario.node[0].appl  nodeId  ETV
vector 6  scenario.node[0].appl  acceleration  ETV
vector 7  scenario.node[0].appl  controllerAcceleration  ETV
vector 3  scenario.node[0].appl  speed  ETV
vector 4  scenario.node[0].appl  posx  ETV
vector 5  scenario.node[0].appl  posy  ETV
vector 22  scenario.node[1].appl  distance  ETV
vector 23  scenario.node[1].appl  relativeSpeed  ETV
vector 24  scenario.node[1].appl  nodeId  ETV
vector 28  scenario.node[1].appl  acceleration  ETV
vector 29  scenario.node[1].appl  controllerAcceleration  ETV
vector 25  scenario.node[1].appl  speed  ETV
vector 26  scenario.node[1].appl  posx  ETV
vector 27  scenario.node[1].appl  posy  ETV
vector 44  scenario.node[2].appl  distance  ETV
vector 45  scenario.node[2].appl  relativeSpeed  ETV
vector 46  scenario.node[2].appl  nodeId  ETV
vector 50  scenario.node[2].appl  acceleration  ETV
vector 51  scenario.node[2].appl  controllerAcceleration  ETV
vector 47  scenario.node[2].appl  speed  ETV
vector 48  scenario.node[2].appl  posx  ETV
vector 49  scenario.node[2].appl  posy  ETV
vector 66  scenario.node[3].appl  distance  ETV
vector 67  scenario.node[3].appl  relativeSpeed  ETV
vector 68  scenario.node[3].appl  nodeId  ETV
vector 72  scenario.node[3].appl  acceleration  ETV
vector 73  scenario.node[3].appl  controllerAcceleration  ETV
vector 69  scenario.node[3].appl  speed  ETV
vector 70  scenario.node[3].appl  posx  ETV
vector 71  scenario.node[3].appl  posy  ETV
vector 88  scenario.node[4].appl  distance  ETV
vector 89  scenario.node[4].appl  relativeSpeed  ETV
vector 90  scenario.node[4].appl  nodeId  ETV
vector 94  scenario.node[4].appl  acceleration  ETV
vector 95  scenario.node[4].appl  controllerAcceleration  ETV
vector 91  scenario.node[4].appl  speed  ETV
vector 92  scenario.node[4].appl  posx  ETV
vector 93  scenario.node[4].appl  posy  ETV
vector 110  scenario.node[5].appl  distance  ETV
vector 111  scenario.node[5].appl  relativeSpeed  ETV
vector 112  scenario.node[5].appl  nodeId  ETV
vector 116  scenario.node[5].appl  acceleration  ETV
vector 117  scenario.node[5].appl  controllerAcceleration  ETV
vector 113  scenario.node[5].appl  speed  ETV
vector 114  scenario.node[5].appl  posx  ETV
vector 115  scenario.node[5].appl  posy  ETV
vector 132  scenario.node[6].appl  distance  ETV
vector 133  scenario.node[6].appl  relativeSpeed  ETV
vector 134  scenario.node[6].appl  nodeId  ETV
vector 138  scenario.node[6].appl  acceleration  ETV
vector 139  scenario.node[6].appl  controllerAcceleration  ETV
vector 135  scenario.node[6].appl  speed  ETV
vector 136  scenario.node[6].appl  posx  ETV
vector 137  scenario.node[6].appl  posy  ETV
vector 154  scenario.node[7].appl  distance  ETV
vector 155  scenario.node[7].appl  relativeSpeed  ETV
vector 156  scenario.node[7].appl  nodeId  ETV
vector 160  scenario.node[7].appl  acceleration  ETV
vector 161  scenario.node[7].appl  controllerAcceleration  ETV
vector 157  scenario.node[7].appl  speed  ETV
vector 158  scenario.node[7].appl  posx  ETV
vector 159  scenario.node[7].appl  posy  ETV
vector 168  scenario.node[7].prot  frontDelay  ETV
vector 166  scenario.node[7].prot  frontDelayId  ETV
vector 146  scenario.node[6].prot  frontDelay  ETV
vector 144  scenario.node[6].prot  frontDelayId  ETV
vector 35  scenario.node[1].prot  leaderDelay  ETV
vector 33  scenario.node[1].prot  leaderDelayId  ETV
vector 36  scenario.node[1].prot  frontDelay  ETV
vector 34  scenario.node[1].prot  frontDelayId  ETV
vector 57  scenario.node[2].prot  leaderDelay  ETV
vector 55  scenario.node[2].prot  leaderDelayId  ETV
vector 79  scenario.node[3].prot  leaderDelay  ETV
vector 77  scenario.node[3].prot  leaderDelayId  ETV
vector 101  scenario.node[4].prot  leaderDelay  ETV
vector 99  scenario.node[4].prot  leaderDelayId  ETV
vector 123  scenario.node[5].prot  leaderDelay  ETV
vector 121  scenario.node[5].prot  leaderDelayId  ETV
vector 145  scenario.node[6].prot  leaderDelay  ETV
vector 143  scenario.node[6].prot  leaderDelayId  ETV
vector 167  scenario.node[7].prot  leaderDelay  ETV
vector 165  scenario.node[7].prot  leaderDelayId  ETV
vector 102  scenario.node[4].prot  frontDelay  ETV
vector 100  scenario.node[4].prot  frontDelayId  ETV
vector 80  scenario.node[3].prot  frontDelay  ETV
vector 78  scenario.node[3].prot  frontDelayId  ETV
vector 124  scenario.node[5].prot  frontDelay  ETV
vector 122  scenario.node[5].prot  frontDelayId  ETV
vector 58  scenario.node[2].prot  frontDelay  ETV
vector 56  scenario.node[2].prot  frontDelayId  ETV
vector 8  scenario.node[0].prot  nodeId  ETV
vector 9  scenario.node[0].prot  busyTime  ETV
vector 10  scenario.node[0].prot  collisions  ETV
vector 30  scenario.node[1].prot  nodeId  ETV
vector 31  scenario.node[1].prot  busyTime  ETV
vector 32  scenario.node[1].prot  collisions  ETV
vector 52  scenario.node[2].prot  nodeId  ETV
vector 53  scenario.node[2].prot  busyTime  ETV
vector 54  scenario.node[2].prot  collisions  ETV
vector 74  scenario.node[3].prot  nodeId  ETV
vector 75  scenario.node[3].prot  busyTime  ETV
vector 76  scenario.node[3].prot  collisions  ETV
vector 96  scenario.node[4].prot  nodeId  ETV
vector 97  scenario.node[4].prot  busyTime  ETV
vector 98  scenario.node[4].prot  collisions  ETV
vector 118  scenario.node[5].prot  nodeId  ETV
vector 119  scenario.node[5].prot  busyTime  ETV
vector 120  scenario.node[5].prot  collisions  ETV
vector 140  scenario.node[6].prot  nodeId  ETV
vector 141  scenario.node[6].prot  busyTime  ETV
vector 142  scenario.node[6].prot  collisions  ETV
vector 162  scenario.node[7].prot  nodeId  ETV
vector 163  scenario.node[7].prot  busyTime  ETV
vector 164  scenario.node[7].prot  collisions  ETV
7	11081 7296 232 170876 1.11 31.71 307 -1.5 1.5 12.322356189537 486.51089747463
6	18377 9622 232 170876 1.11 31.71 307 -1.4722746794739 1.4513241957715 4.2998653199007 325.22513602573
5	27999 6159 232 170876 1.11 31.71 307 36.55 36.55 11220.85 410122.0675
4	34158 9195 232 170876 1.11 31.71 307 102.0599697109 1380.1363917648 227997.57463301 211444737.19513
3	43353 9182 232 170876 1.11 31.71 307 40.376926150007 43.631381416411 12822.570764877 535789.96503184
1	52535 4931 232 170876 1.11 31.71 307 0 0 0 0
0	57466 5238 232 170876 1.11 31.71 307 -1 -1 -307 307
2	62704 4931 232 170876 1.11 31.71 307 0 0 0 0
10	67635 423 5168 166900 2 31 30 0 0 0 0
9	68058 574 5168 166900 2 31 30 0.023297 0.02625 0.784547 0.020525562709
8	68632 393 5168 166900 2 31 30 0 0 0 0
29	69025 9859 233 170877 1.11 31.71 307 -1.5233934309834 1.5241491857569 10.799579437339 492.08393921535
28	78884 9906 233 170877 1.11 31.71 307 -1.4872877339691 1.4631892485703 3.3460384418795 327.46590010989
27	88790 6466 233 170877 1.11 31.71 307 36.55 36.55 11220.85 410122.0675
26	95256 9492 233 170877 1.11 31.71 307 93.059965896607 1371.105485015 225232.5591038 207365036.44177
25	104748 9512 233 170877 1.11 31.71 307 40.369384337985 43.636794094665 12822.227655922 535764.09983048
23	114260 10380 233 170877 1.11 31.71 307 -0.085370867627489 0.085492727013758 0.30011030158331 1.1822461773877
22	124640 9505 233 170877 1.11 31.71 307 4.9094714737253 5.1291568444871 1537.0086670324 7696.1823811823
24	134145 5238 233 170877 1.11 31.71 307 1 1 307 307
36	139383 12151 1034 170565 1.262216930646 31.662213123117 305 0.099998659109 0.100011673737 30.499994852929 3.0499989752919
35	151534 12151 1034 170565 1.262216930646 31.662213123117 305 0.099998659109 0.100011673737 30.499994852929 3.0499989752919
34	163685 8218 1034 170565 1.262216930646 31.662213123117 305 1 1 305 305
33	171903 8218 1034 170565 1.262216930646 31.662213123117 305 1 1 305 305
32	180121 423 5169 166901 2 31 30 0 0 0 0
31	180544 604 5169 166901 2 31 30 0.023296 0.02625 0.784546 0.020525516116
30	181148 423 5169 166901 2 31 30 1 1 30 30
51	181571 9830 234 170878 1.11 31.71 307 -1.4963007059154 1.4967154537035 9.9558260353072 471.82652695971
50	191401 9896 234 170878 1.11 31.71 307 -1.4778825524118 1.4525906629153 3.0365958868927 323.92183242295
49	201297 6466 234 170878 1.11 31.71 307 36.55 36.55 11220.85 410122.0675
48	207763 9505 234 170878 1.11 31.71 307 84.059965896606 1362.1048601828 222468.44415963 203335098.82001
47	217268 9499 234 170878 1.11 31.71 307 40.375617874812 43.631086110555 12822.211317341 535760.5013716
45	226767 10469 234 170878 1.11 31.71 307 -0.019406090074334 0.017598480801212 -0.017121803192531 0.032760001268757
44	237236 9498 234 170878 1.11 31.71 307 4.9758459001321 5.0458891911319 1536.114617401 7686.2461350848
46	246734 5238 234 170878 1.11 31.71 307 2 2 614 1228
58	251972 12168 1312 170838 1.302609200833 31.702605460196 305 0.099998659095 0.100011705713 30.500007919821 3.0500015888052
57	264140 12153 1040 170571 1.262216960667 31.662213153136 305 0.099998659109 0.100011673743 30.499994852927 3.0499989752915
56	276293 8231 1312 170838 1.302609200833 31.702605460196 305 2 2 610 1220
55	284524 8222 1040 170571 1.262216960667 31.662213153136 305 2 2 610 1220
54	292746 423 5170 166902 2 31 30 0 0 0 0
53	293169 604 5170 166902 2 31 30 0.023297 0.02625 0.784547 0.020525562709
52	293773 423 5170 166902 2 31 30 2 2 60 120
73	294196 9862 235 170879 1.11 31.71 307 -1.5144504221291 1.515444161316 10.350320200679 482.36425023426
72	304058 9921 235 170879 1.11 31.71 307 -1.4663369074121 1.4406082194796 2.8470118883284 318.01826451217
71	313979 6466 235 170879 1.11 31.71 307 36.55 36.55 11220.85 410122.0675
70	320445 9500 235 170879 1.11 31.71 307 75.059965896606 1353.109666918 219704.26149851 199354887.73025
69	329945 9511 235 170879 1.11 31.71 307 40.387229104666 43.618611456843 12822.252313714 535760.29804767
67	339456 10530 235 170879 1.11 31.71 307 -0.015760221720797 0.014948745126567 -0.071362331944393 0.018276400267559
66	349986 9480 235 170879 1.11 31.71 307 4.9816113329605 5.040652675124 1536.183481047 7686.9035982606
68	359466 5238 235 170879 1.11 31.71 307 3 3 921 2763
80	364704 12163 1176 170701 1.287873050729 31.687882243142 305 0.099998659102 0.100011706841 30.500007852871 3.0500015754154
79	376867 12167 1046 170577 1.262216990687 31.662213183137 305 0.099998659106 0.100011673745 30.499994852908 3.0499989752877
78	389034 8228 1176 170701 1.287873050729 31.687882243142 305 3 3 915 2745
77	397262 8227 1046 170577 1.262216990687 31.662213183137 305 3 3 915 2745
76	405489 423 5171 166903 2 31 30 0 0 0 0
75	405912 604 5171 166903 2 31 30 0.023297 0.02625 0.784547 0.020525562709
74	406516 423 5171 166903 2 31 30 3 3 90 270
95	406939 9890 236 170880 1.11 31.71 307 -14.359663267753 1.503235701476 -211.9427655885 2788.909331145
94	416829 9876 236 170880 1.11 31.71 307 -9.0000000000003 1.4309616969605 -145.5343878113 1423.5426132628
93	426705 6466 236 170880 1.11 31.71 307 36.55 36.55 11220.85 410122.0675
92	433171 9497 236 170880 1.11 31.71 307 66.059965896606 1333.7131224168 216884.23306317 195276035.34284
91	442668 9502 236 170880 1.11 31.71 307 27.521032468953 43.605851026972 12713.175384684 527813.38049397
89	452170 10453 236 170880 1.11 31.71 307 -0.013273963562213 14.351846714158 109.04845891045 1064.9038938849
88	462623 9482 236 170880 1.11 31.71 307 4.9908448381341 15.109224814647 1589.8468967548 8567.5538207513
90	472105 5238 236 170880 1.11 31.71 307 4 4 1228 4912
102	477343 12435 1108 170645 1.276579020708 31.67658824593 305 0.099998659103 0.100011710672 30.50000788568 3.0500015819772
101	489778 12425 1052 170583 1.262217020708 31.662213245462 305 0.099998659103 0.100011675843 30.499994885212 3.0499989817485
100	502203 8507 1108 170645 1.276579020708 31.67658824593 305 4 4 1220 4880
99	510710 8196 1052 170583 1.262217020708 31.662213245462 305 4 4 1220 4880
98	518906 423 5172 166904 2 31 30 0 0 0 0
97	519329 604 5172 166904 2 31 30 0.023297 0.02625 0.784547 0.020525562709
96	519933 423 5172 166904 2 31 30 4 4 120 480
139	520356 10178 238 170882 1.11 31.71 307 -2.5182561947729 1.4958357627283 -52.749640542548 528.98212243308
138	530534 10239 238 170882 1.11 31.71 307 -2.311739269922 1.4357065190943 -41.558811862593 355.06201589143
137	540773 6773 238 170882 1.11 31.71 307 36.55 36.55 11220.85 410122.0675
136	547546 9813 238 170882 1.11 31.71 307 48.059967803955 1323.3793636281 211398.14072926 187674965.83409
135	557359 9811 238 170882 1.11 31.71 307 37.617628998578 43.610545936766 12793.423805398 533456.86798146
133	567170 10888 238 170882 1.11 31.71 307 -3.942921457262 0.011156223634529 -29.685745518684 79.924350561606
132	578058 9796 238 170882 1.11 31.71 307 2.1704256769603 5.0279109151694 1521.0975596562 7563.0473094104
134	587854 5545 238 170882 1.11 31.71 307 6 6 1842 11052
146	593399 12510 970 171058 1.247594780542 31.747602679537 306 0.099998659092 0.100011721935 30.600006559453 3.060001316734
145	605909 12450 1064 170595 1.26221708075 31.662213281602 305 0.099998659106 0.100011674251 30.49999486131 3.0499989769681
144	618359 8554 970 171058 1.247594780542 31.747602679537 306 6 6 1836 11016
143	626913 8525 1064 170595 1.26221708075 31.662213281602 305 6 6 1830 10980
142	635438 453 5174 166906 2 31 30 0 0 0 0
141	635891 634 5174 166906 2 31 30 0.023297 0.02625 0.784547 0.020525562709
140	636525 453 5174 166906 2 31 30 6 6 180 1080
161	636978 10201 239 170883 1.11 31.71 307 -1.4854568334586 1.4867112329006 -22.285891593094 431.04035775243
160	647179 10248 239 170883 1.11 31.71 307 -1.4553422013989 1.4301187318303 -19.601199754192 299.57509015242
159	657427 6773 239 170883 1.11 31.71 307 36.55 36.55 11220.85 410122.0675
158	664200 9805 239 170883 1.11 31.71 307 39.059966850281 1315.8404052888 208641.54402533 183912870.1583
157	674005 9816 239 170883 1.11 31.71 307 39.736237550189 43.604433767827 12808.789342315 534662.33903607
155	683821 10894 239 170883 1.11 31.71 307 -2.0954911589113 0.0095544623327797 -14.949948798443 21.311059940389
154	694715 9809 239 170883 1.11 31.71 307 3.5813305104048 5.01490877455 1528.9040146771 7620.588096073
156	704524 5545 239 170883 1.11 31.71 307 7 7 2149 15043
168	710069 12514 832 170920 1.212136690479 31.712131614374 306 0.09999865909 0.100011690662 30.599993584353 3.0599987215788
167	722583 12460 1070 170601 1.26221711077 31.662213307099 305 0.099998659104 0.10001167397 30.499994856787 3.0499989760635
166	735043 8566 832 170920 1.212136690479 31.712131614374 306 7 7 2142 14994
165	743609 8521 1070 170601 1.26221711077 31.662213307099 305 7 7 2135 14945
164	752130 453 5175 166907 2 31 30 0 0 0 0
163	752583 634 5175 166907 2 31 30 0.023297 0.02625 0.784547 0.020525562709
162	753217 453 5175 166907 2 31 30 7 7 210 1470
110	753670 9839 237 171090 1.11 31.75 308 0 5.0245318497509 1510.5997426674 7507.2073808659
111	763509 10681 237 171090 1.11 31.75 308 -6.2107482471465 0.032962812876292 -54.492383614759 241.40006658432
112	774190 5564 237 171090 1.11 31.75 308 5 5 1540 7700
113	779754 9846 237 171090 1.11 31.75 308 33.42808018506 43.607099759179 12796.340444115 532300.40672031
114	789600 9844 237 171090 1.11 31.75 308 57.059967803955 1330.8080449495 215477.43610504 193236144.97491
115	799444 6796 237 171090 1.11 31.75 308 36.55 36.55 11257.4 411457.97
116	806240 10278 237 171090 1.11 31.75 308 -5.1739312702452 1.433084252983 -87.474189160266 643.71027864303
117	816518 10211 237 171090 1.11 31.75 308 -6.5428520354438 1.5107019059802 -115.23474708369 1012.012442433
118	826729 453 5173 166905 2 31 30 5 5 150 750
119	827182 634 5173 166905 2 31 30 0.023297 0.02625 0.784547 0.020525562709
120	827816 453 5173 166905 2 31 30 0 0 0 0
121	828269 8538 1058 170589 1.262217050729 31.662213260626 305 5 5 1525 7625
122	836807 8534 1244 170769 1.297503110771 31.697512320969 305 5 5 1525 7625
123	845341 12478 1058 170589 1.262217050729 31.662213260626 305 0.099998659103 0.100011674826 30.499994870355 3.0499989787771
124	857819 12458 1244 170769 1.297503110771 31.697512320969 305 0.0999986591 0.1000117183 30.500007870656 3.0500015789727
