file 924402 1512143987                                          
version 2
run SinusoidalAccInjectionAttack-214-20171201-16:59:30-60379
attr CACCSpacing 20
attr attackAcc 10
attr attackPos 7
attr attackSpeed 150
attr attackStart 30
attr attacker 4
attr beaconInterval 0.1
attr configname SinusoidalAccInjectionAttack
attr controller 2
attr datetime 20171201-16:59:30
attr experiment SinusoidalAccInjectionAttack
attr fakeAcc "(4 == 4)"
attr fakePos "(4 == 2)"
attr fakeSpeed "(4 == 3)"
attr inifile omnetpp_214.ini
attr iterationvars "$attacker=4, $attackSpeed=150, $attackPos=7, $attackAcc=10, $leaderSpeed=100, $controller=2, $CACCSpacing=20, $sController=\"PLOEG\", $attackStart=30, $0=2, $1=0.5, $nCars=8, $platoonSize=8, $nLanes=1, $beaconInterval=0.1, $priority=2, $packetSize=200, $ploegH=0.5, $leaderHeadway=1.2, $fakeSpeed=(4 == 3), $fakeAcc=(4 == 4), $fakePos=(4 == 2)"
attr iterationvarsf attacker=4,attackSpeed=150,attackPos=7,attackAcc=10,leaderSpeed=100,controller=2,CACCSpacing=20,sController=PLOEG,attackStart=30,2,0.5,nCars=8,platoonSize=8,nLanes=1,beaconInterval=0.1,priority=2,packetSize=200,ploegH=0.5,leaderHeadway=1.2,fakeSpeed=(4_==_3),fakeAcc=(4_==_4),fakePos=(4_==_2)-
attr leaderHeadway 1.2
attr leaderSpeed 100
attr measurement "$attacker=4, $attackSpeed=150, $attackPos=7, $attackAcc=10, $leaderSpeed=100, $controller=2, $CACCSpacing=20, $sController=\"PLOEG\", $attackStart=30, $0=2, $1=0.5, $nCars=8, $platoonSize=8, $nLanes=1, $beaconInterval=0.1, $priority=2, $packetSize=200, $ploegH=0.5, $leaderHeadway=1.2, $fakeSpeed=(4 == 3), $fakeAcc=(4 == 4), $fakePos=(4 == 2)"
attr nCars 8
attr nLanes 1
attr network scenario
attr packetSize 200
attr platoonSize 8
attr ploegH 0.5
attr priority 2
attr processid 60379
attr repetition 4
attr replication #4
attr resultdir results
attr runnumber 214
attr sController "\"PLOEG\""
attr seedset 4
param **.coreDebug false
param **.debug false
param **.headway 0.1s
param **.numberOfCars 8
param **.numberOfCarsPerPlatoon 8
param **.numberOfLanes 1
param **.numericController 2
param **.traffic.nCars 8
param **.traffic.nLanes 1
param **.traffic.platoonInsertDistance 2m
param **.traffic.platoonInsertHeadway 0.5s
param **.traffic.platoonInsertSpeed 100kmph
param **.traffic.platoonInsertTime "1 s"
param **.traffic.platoonLeaderHeadway 1.2s
param **.traffic.platoonSize 8
param **.traffic.platooningVType "\"vtypeauto\""
param **.traffic_type "\"PlatoonsTrafficManager\""
param *.**.nic.mac1609_4.bitrate 6Mbps
param *.**.nic.mac1609_4.txPower 100mW
param *.**.nic.mac1609_4.useServiceChannel false
param *.**.nic.phy80211p.analogueModels "xmldoc(\"config.xml\")"
param *.**.nic.phy80211p.decider "xmldoc(\"config.xml\")"
param *.**.nic.phy80211p.maxTXPower 100mW
param *.**.nic.phy80211p.sensitivity -94dBm
param *.**.nic.phy80211p.thermalNoise -95dBm
param *.**.nic.phy80211p.usePropagationDelay true
param *.**.nic.phy80211p.useThermalNoise true
param *.annotations.draw false
param *.connectionManager.alpha 2.0
param *.connectionManager.carrierFrequency "5.890e9 Hz"
param *.connectionManager.pMax 100mW
param *.connectionManager.sat -94dBm
param *.connectionManager.sendDirect true
param *.manager.autoShutdown true
param *.manager.commandLine "\"sumo --remote-port $port --seed $seed --configuration-file $configFile\""
param *.manager.configFile "\"./sumocfg/freeway.sumo.cfg\""
param *.manager.host "\"localhost\""
param *.manager.margin 25
param *.manager.moduleDisplayString "\"\""
param *.manager.moduleName "\"node\""
param *.manager.moduleType "\"Car\""
param *.manager.updateInterval 0.01s
param *.node[*].appl.attackStart 30s
param *.node[*].appl.attackerType 4
param *.node[*].appl.simulationDuration "60 s"
param *.node[*].appl_type "\"SimplePlatooningApp\""
param *.node[*].helper.nCars 8
param *.node[*].helper.nLanes 1
param *.node[*].helper.platoonSize 8
param *.node[*].helper_type "\"PositionHelper\""
param *.node[*].mobility.x 0
param *.node[*].mobility.y 0
param *.node[*].mobility.z 1.895
param *.node[*].prot.attackStart 30s
param *.node[*].prot.attackerType 4
param *.node[*].prot.attackingNode 3
param *.node[*].prot.beaconingInterval 0.1s
param *.node[*].prot.fakeAcc "(4 == 4)"
param *.node[*].prot.fakePos "(4 == 2)"
param *.node[*].prot.fakeSpeed "(4 == 3)"
param *.node[*].prot.maliciousAcc "10 mpss"
param *.node[*].prot.maliciousSpeed 150kmph
param *.node[*].prot.packetSize 200
param *.node[*].prot.priority 2
param *.node[*].prot.shiftX "7 m"
param *.node[*].prot.useControllerAcceleration true
param *.node[*].protocol_type "\"SimplePlatooningBeaconing\""
param *.node[*].scenario.accHeadway 0.1s
param *.node[*].scenario.caccC1 0.5
param *.node[*].scenario.caccOmegaN "0.2 Hz"
param *.node[*].scenario.caccSpacing 20m
param *.node[*].scenario.caccXi 1
param *.node[*].scenario.controller "\"PLOEG\""
param *.node[*].scenario.engineTau "0.5 s"
param *.node[*].scenario.leaderHeadway 1.2s
param *.node[*].scenario.leaderSpeed 100kmph
param *.node[*].scenario.ploegH 0.5s
param *.node[*].scenario.ploegKd 0.7
param *.node[*].scenario.ploegKp 0.2
param *.node[*].scenario.useRealisticEngine false
param *.node[*].scenario_type "\"SinusoidalScenario\""
param *.node[*].unicast.packetLossRate 0
param *.obstacles.debug false
param *.playgroundSizeX 65000m
param *.playgroundSizeY 25000m
param *.playgroundSizeZ 50m
param *.world.use2D false
param *.world.useTorus false

vector 0  scenario.node[0].appl  distance  ETV
vector 1  scenario.node[0].appl  relativeSpeed  ETV
vector 2  scenario.node[0].appl  nodeId  ETV
vector 6  scenario.node[0].appl  acceleration  ETV
vector 7  scenario.node[0].appl  controllerAcceleration  ETV
vector 3  scenario.node[0].appl  speed  ETV
vector 4  scenario.node[0].appl  posx  ETV
vector 5  scenario.node[0].appl  posy  ETV
vector 22  scenario.node[1].appl  distance  ETV
vector 23  scenario.node[1].appl  relativeSpeed  ETV
vector 24  scenario.node[1].appl  nodeId  ETV
vector 28  scenario.node[1].appl  acceleration  ETV
vector 29  scenario.node[1].appl  controllerAcceleration  ETV
vector 25  scenario.node[1].appl  speed  ETV
vector 26  scenario.node[1].appl  posx  ETV
vector 27  scenario.node[1].appl  posy  ETV
vector 44  scenario.node[2].appl  distance  ETV
vector 45  scenario.node[2].appl  relativeSpeed  ETV
vector 46  scenario.node[2].appl  nodeId  ETV
vector 50  scenario.node[2].appl  acceleration  ETV
vector 51  scenario.node[2].appl  controllerAcceleration  ETV
vector 47  scenario.node[2].appl  speed  ETV
vector 48  scenario.node[2].appl  posx  ETV
vector 49  scenario.node[2].appl  posy  ETV
vector 66  scenario.node[3].appl  distance  ETV
vector 67  scenario.node[3].appl  relativeSpeed  ETV
vector 68  scenario.node[3].appl  nodeId  ETV
vector 72  scenario.node[3].appl  acceleration  ETV
vector 73  scenario.node[3].appl  controllerAcceleration  ETV
vector 69  scenario.node[3].appl  speed  ETV
vector 70  scenario.node[3].appl  posx  ETV
vector 71  scenario.node[3].appl  posy  ETV
vector 88  scenario.node[4].appl  distance  ETV
vector 89  scenario.node[4].appl  relativeSpeed  ETV
vector 90  scenario.node[4].appl  nodeId  ETV
vector 94  scenario.node[4].appl  acceleration  ETV
vector 95  scenario.node[4].appl  controllerAcceleration  ETV
vector 91  scenario.node[4].appl  speed  ETV
vector 92  scenario.node[4].appl  posx  ETV
vector 93  scenario.node[4].appl  posy  ETV
vector 110  scenario.node[5].appl  distance  ETV
vector 111  scenario.node[5].appl  relativeSpeed  ETV
vector 112  scenario.node[5].appl  nodeId  ETV
vector 116  scenario.node[5].appl  acceleration  ETV
vector 117  scenario.node[5].appl  controllerAcceleration  ETV
vector 113  scenario.node[5].appl  speed  ETV
vector 114  scenario.node[5].appl  posx  ETV
vector 115  scenario.node[5].appl  posy  ETV
vector 132  scenario.node[6].appl  distance  ETV
vector 133  scenario.node[6].appl  relativeSpeed  ETV
vector 134  scenario.node[6].appl  nodeId  ETV
vector 138  scenario.node[6].appl  acceleration  ETV
vector 139  scenario.node[6].appl  controllerAcceleration  ETV
vector 135  scenario.node[6].appl  speed  ETV
vector 136  scenario.node[6].appl  posx  ETV
vector 137  scenario.node[6].appl  posy  ETV
vector 154  scenario.node[7].appl  distance  ETV
vector 155  scenario.node[7].appl  relativeSpeed  ETV
vector 156  scenario.node[7].appl  nodeId  ETV
vector 160  scenario.node[7].appl  acceleration  ETV
vector 161  scenario.node[7].appl  controllerAcceleration  ETV
vector 157  scenario.node[7].appl  speed  ETV
vector 158  scenario.node[7].appl  posx  ETV
vector 159  scenario.node[7].appl  posy  ETV
vector 102  scenario.node[4].prot  frontDelay  ETV
vector 100  scenario.node[4].prot  frontDelayId  ETV
vector 35  scenario.node[1].prot  leaderDelay  ETV
vector 33  scenario.node[1].prot  leaderDelayId  ETV
vector 36  scenario.node[1].prot  frontDelay  ETV
vector 34  scenario.node[1].prot  frontDelayId  ETV
vector 57  scenario.node[2].prot  leaderDelay  ETV
vector 55  scenario.node[2].prot  leaderDelayId  ETV
vector 79  scenario.node[3].prot  leaderDelay  ETV
vector 77  scenario.node[3].prot  leaderDelayId  ETV
vector 101  scenario.node[4].prot  leaderDelay  ETV
vector 99  scenario.node[4].prot  leaderDelayId  ETV
vector 123  scenario.node[5].prot  leaderDelay  ETV
vector 121  scenario.node[5].prot  leaderDelayId  ETV
vector 145  scenario.node[6].prot  leaderDelay  ETV
vector 143  scenario.node[6].prot  leaderDelayId  ETV
vector 167  scenario.node[7].prot  leaderDelay  ETV
vector 165  scenario.node[7].prot  leaderDelayId  ETV
vector 80  scenario.node[3].prot  frontDelay  ETV
vector 78  scenario.node[3].prot  frontDelayId  ETV
vector 146  scenario.node[6].prot  frontDelay  ETV
vector 144  scenario.node[6].prot  frontDelayId  ETV
vector 58  scenario.node[2].prot  frontDelay  ETV
vector 56  scenario.node[2].prot  frontDelayId  ETV
vector 124  scenario.node[5].prot  frontDelay  ETV
vector 122  scenario.node[5].prot  frontDelayId  ETV
vector 168  scenario.node[7].prot  frontDelay  ETV
vector 166  scenario.node[7].prot  frontDelayId  ETV
vector 8  scenario.node[0].prot  nodeId  ETV
vector 9  scenario.node[0].prot  busyTime  ETV
vector 10  scenario.node[0].prot  collisions  ETV
vector 30  scenario.node[1].prot  nodeId  ETV
vector 31  scenario.node[1].prot  busyTime  ETV
vector 32  scenario.node[1].prot  collisions  ETV
vector 52  scenario.node[2].prot  nodeId  ETV
vector 53  scenario.node[2].prot  busyTime  ETV
vector 54  scenario.node[2].prot  collisions  ETV
vector 74  scenario.node[3].prot  nodeId  ETV
vector 75  scenario.node[3].prot  busyTime  ETV
vector 76  scenario.node[3].prot  collisions  ETV
vector 96  scenario.node[4].prot  nodeId  ETV
vector 97  scenario.node[4].prot  busyTime  ETV
vector 98  scenario.node[4].prot  collisions  ETV
vector 118  scenario.node[5].prot  nodeId  ETV
vector 119  scenario.node[5].prot  busyTime  ETV
vector 120  scenario.node[5].prot  collisions  ETV
vector 140  scenario.node[6].prot  nodeId  ETV
vector 141  scenario.node[6].prot  busyTime  ETV
vector 142  scenario.node[6].prot  collisions  ETV
vector 162  scenario.node[7].prot  nodeId  ETV
vector 163  scenario.node[7].prot  busyTime  ETV
vector 164  scenario.node[7].prot  collisions  ETV
7	11095 7752 232 181475 1.11 33.61 326 -1.5 1.5 -2.7539813132655 518.55984025099
6	18847 10233 232 181475 1.11 33.61 326 -1.4722746794938 1.451340770512 4.0109523638037 344.57829324877
5	29080 6558 232 181475 1.11 33.61 326 36.55 36.55 11915.3 435504.215
4	35638 9784 232 181475 1.11 33.61 326 188.27519912693 1095.952116333 209559.87018846 157175111.42733
3	45422 9783 232 181475 1.11 33.61 326 26.488037261118 29.742492528104 9104.6970282242 254520.68809387
1	55205 5254 232 181475 1.11 33.61 326 0 0 0 0
0	60459 5580 232 181475 1.11 33.61 326 -1 -1 -326 326
2	66039 5254 232 181475 1.11 33.61 326 0 0 0 0
10	71293 454 5234 178122 2 33 32 0 0 0 0
9	71747 615 5234 178122 2 33 32 0.023625 0.02625 0.837375 0.021919078125
8	72362 422 5234 178122 2 33 32 0 0 0 0
29	72784 10528 233 181476 1.11 33.61 326 -1.521824778392 1.5060530921138 4.8133029097596 371.27216397714
28	83312 10588 233 181476 1.11 33.61 326 -1.4294161026008 1.361262428113 8.7314410308718 258.87300180025
27	93900 6884 233 181476 1.11 33.61 326 36.55 36.55 11915.3 435504.215
26	100784 10115 233 181476 1.11 33.61 326 168.38631362915 1075.6271629072 203053.17029436 148946683.06129
25	110899 10113 233 181476 1.11 33.61 326 26.678825658129 29.569890003312 9100.4976469872 254236.43831742
23	121012 10739 233 181476 1.11 33.61 326 -0.71716474615816 0.6970197730808 4.1592717133788 69.516108080559
22	131751 10103 233 181476 1.11 33.61 326 15.305687796118 16.80022616005 5202.6159064803 83080.52130541
24	141854 5580 233 181476 1.11 33.61 326 1 1 326 326
36	147434 12936 964 181094 1.241823990267 33.541818667784 324 0.099999348472 0.100012490033 32.399994137046 3.2399988295187
35	160370 12936 964 181094 1.241823990267 33.541818667784 324 0.099999348472 0.100012490033 32.399994137046 3.2399988295187
34	173306 8748 964 181094 1.241823990267 33.541818667784 324 1 1 324 324
33	182054 8748 964 181094 1.241823990267 33.541818667784 324 1 1 324 324
32	190802 454 5235 178123 2 33 32 0 0 0 0
31	191256 647 5235 178123 2 33 32 0.023625 0.02625 0.837375 0.021919078125
30	191903 454 5235 178123 2 33 32 1 1 32 32
51	192357 10577 234 181477 1.11 33.61 326 -1.4848834340289 1.4155722668554 9.5275778983112 280.50246578354
50	202934 10630 234 181477 1.11 33.61 326 -1.3416403916573 1.2243807374201 9.5703496824676 200.88203071571
49	213564 6884 234 181477 1.11 33.61 326 36.55 36.55 11915.3 435504.215
48	220448 10110 234 181477 1.11 33.61 326 148.49742050171 1055.2296395778 196548.89959913 140982751.10628
47	230558 10115 234 181477 1.11 33.61 326 26.822305935216 29.442717644813 9095.4348494663 253914.10011844
45	240673 10736 234 181477 1.11 33.61 326 -0.68154804331535 0.63630818361361 4.9754831105585 54.512730451338
44	251409 10113 234 181477 1.11 33.61 326 15.378876264717 16.737450928814 5200.1694392754 82991.966974925
46	261522 5580 234 181477 1.11 33.61 326 2 2 652 1304
58	267102 12935 1176 181306 1.281933587347 33.58192818866 324 0.099999344095 0.100012489617 32.399994060842 3.2399988142783
57	280037 12924 970 181100 1.241824056609 33.54181873583 324 0.099999348484 0.100012490149 32.39999413875 3.2399988298595
56	292961 8758 1176 181306 1.281933587347 33.58192818866 324 2 2 648 1296
55	301719 8749 970 181100 1.241824056609 33.54181873583 324 2 2 648 1296
54	310468 454 5236 178124 2 33 32 0 0 0 0
53	310922 647 5236 178124 2 33 32 0.023625 0.02625 0.837375 0.021919078125
52	311569 454 5236 178124 2 33 32 2 2 64 128
73	312023 10629 235 181478 1.11 33.61 326 -1.3922109426526 1.2741012926682 9.974251542566 218.28709296395
72	322652 10680 235 181478 1.11 33.61 326 -1.2341600682372 1.0785339538678 6.7888102145798 157.22853952138
71	333332 6884 235 181478 1.11 33.61 326 36.55 36.55 11915.3 435504.215
70	340216 10100 235 181478 1.11 33.61 326 128.60853500366 1034.9577498414 190046.85843288 133282471.9838
69	350316 10101 235 181478 1.11 33.61 326 26.938449338679 29.341919222526 9091.5026504251 253664.79416085
67	360417 10712 235 181478 1.11 33.61 326 -0.62920927545101 0.56332654694275 3.836495544404 42.690765120959
66	371129 10103 235 181478 1.11 33.61 326 15.441000033068 16.683354175896 5197.9625222735 82913.012089149
68	381232 5580 235 181478 1.11 33.61 326 3 3 978 2934
80	386812 12926 1040 181164 1.262751122951 33.562758803397 324 0.099999348603 0.100012503185 32.400007139975 3.240001430258
79	399738 12934 976 181106 1.241824122952 33.541818803375 324 0.099999348607 0.100012490304 32.399994139952 3.2399988300999
78	412672 8750 1040 181164 1.262751122951 33.562758803397 324 3 3 972 2916
77	421422 8749 976 181106 1.241824122952 33.541818803375 324 3 3 972 2916
76	430171 454 5237 178125 2 33 32 0 0 0 0
75	430625 647 5237 178125 2 33 32 0.023625 0.02625 0.837375 0.021919078125
74	431272 454 5237 178125 2 33 32 3 3 96 288
117	431726 11030 237 181480 1.11 33.61 326 -1.1716027615643 5.7031709004869 141.014901757 723.35964794653
116	442756 11048 237 181480 1.11 33.61 326 -1.025435003751 2.4999999999999 78.478878589617 254.21051475376
115	453804 7210 237 181480 1.11 33.61 326 36.55 36.55 11915.3 435504.215
114	461014 10428 237 181480 1.11 33.61 326 88.830756378174 1008.0892717798 177182.97716829 118933385.66949
113	471442 10440 237 181480 1.11 33.61 326 27.124602608301 35.520430016282 9223.0926816001 261582.66252496
111	481882 11050 237 181480 1.11 33.61 326 -0.52387267836007 0.80215641468352 27.240664503701 40.367261531764
110	492932 10434 237 181480 1.11 33.61 326 15.540644062422 18.659624380225 5249.5012541849 84629.2317999
112	503366 5906 237 181480 1.11 33.61 326 5 5 1630 8150
124	509272 13261 1242 181372 1.287390786374 33.587398346582 324 0.099999341881 0.100012502825 32.400007019737 3.2400014062111
123	522533 13269 988 181118 1.241824255636 33.541818894646 324 0.0999993463 0.100012490533 32.399994098539 3.2399988218173
122	535802 9080 1242 181372 1.287390786374 33.587398346582 324 5 5 1620 8100
121	544882 9084 988 181118 1.241824255636 33.541818894646 324 5 5 1620 8100
120	553966 486 5239 178127 2 33 32 0 0 0 0
119	554452 679 5239 178127 2 33 32 0.023625 0.02625 0.837375 0.021919078125
118	555131 486 5239 178127 2 33 32 5 5 160 800
139	555617 11044 238 181481 1.11 33.61 326 -1.0686449617304 5.0052958375737 120.83001463579 560.19445556009
138	566661 11027 238 181481 1.11 33.61 326 -0.93801434478387 2.4999999999999 69.172514569599 213.03951081301
137	577688 7210 238 181481 1.11 33.61 326 36.55 36.55 11915.3 435504.215
136	584898 10431 238 181481 1.11 33.61 326 68.94186706543 985.38679913391 170634.81348129 111915959.74906
135	595329 10434 238 181481 1.11 33.61 326 27.201394140314 34.583830305485 9194.6296495876 259782.98659948
133	605763 11090 238 181481 1.11 33.61 326 -0.47890311470105 0.92008039696405 27.678243226611 38.86994876916
132	616853 10442 238 181481 1.11 33.61 326 15.581661518867 18.683740651707 5243.5944263592 84428.203635947
134	627295 5906 238 181481 1.11 33.61 326 6 6 1956 11736
146	633201 13262 1106 181236 1.266713321978 33.566707969772 324 0.099999346601 0.100012492647 32.399994107323 3.239998823574
145	646463 13262 994 181124 1.241824321978 33.541818970154 324 0.099999346614 0.100012490586 32.399994107705 3.2399988236505
144	659725 9073 1106 181236 1.266713321978 33.566707969772 324 6 6 1944 11664
143	668798 9076 994 181124 1.241824321978 33.541818970154 324 6 6 1944 11664
142	677874 486 5240 178128 2 33 32 0 0 0 0
141	678360 679 5240 178128 2 33 32 0.023625 0.02625 0.837375 0.021919078125
140	679039 486 5240 178128 2 33 32 6 6 192 1152
161	679525 11060 239 181482 1.11 33.61 326 -0.97704015486801 4.4863533897184 99.023139942867 420.45609849881
160	690585 11039 239 181482 1.11 33.61 326 -0.86012647939917 2.4999999999999 59.039301223514 174.06832042106
159	701624 7210 239 181482 1.11 33.61 326 36.55 36.55 11915.3 435504.215
158	708834 10437 239 181482 1.11 33.61 326 49.052977752686 962.91211612226 164095.79962006 105177918.36997
157	719271 10431 239 181482 1.11 33.61 326 27.269670355328 33.570227260926 9168.4169689796 258150.55368204
155	729702 11086 239 181482 1.11 33.61 326 -0.43882044765712 0.98860304455835 25.520955462239 34.736734327942
154	740788 10432 239 181482 1.11 33.61 326 15.617966903918 18.454410950757 5234.4896076193 84114.310645977
156	751220 5906 239 181482 1.11 33.61 326 7 7 2282 15974
168	757126 13262 1308 181432 1.289467919058 33.589462497082 324 0.099999342533 0.100012491858 32.399994037553 3.2399988096206
167	770388 13263 1000 181130 1.24182438832 33.541819044885 324 0.099999346953 0.100012490613 32.399994116094 3.2399988253283
166	783651 9083 1308 181432 1.289467919058 33.589462497082 324 7 7 2268 15876
165	792734 9078 1000 181130 1.24182438832 33.541819044885 324 7 7 2268 15876
164	801812 486 5241 178129 2 33 32 0 0 0 0
163	802298 679 5241 178129 2 33 32 0.023625 0.02625 0.837375 0.021919078125
162	802977 486 5241 178129 2 33 32 7 7 224 1568
88	803463 10130 236 181555 1.11 33.64 327 0 16.63861682748 5009.0118110242 78823.242809011
89	813593 10784 236 181555 1.11 33.64 327 -7.8609840717243 0.49480826037847 -167.61407020414 1033.877999533
90	824377 5598 236 181555 1.11 33.64 327 4 4 1308 5232
91	829975 10138 236 181555 1.11 33.64 327 27.037131418515 36.289062200207 9287.4769106556 264698.48534735
92	840113 10141 236 181555 1.11 33.64 327 108.71964187622 1031.8518133542 184768.89213917 127289448.6273
93	850254 6906 236 181555 1.11 33.64 327 36.55 36.55 11951.85 436840.1175
94	857160 10713 236 181555 1.11 33.64 327 -1.1260318061037 2.4999999999999 87.300328043503 297.90312093791
95	867873 10643 236 181555 1.11 33.64 327 -1.2831513118836 6.7463903633345 162.01309885962 956.23570096177
96	878516 454 5238 178126 2 33 32 4 4 128 512
97	878970 647 5238 178126 2 33 32 0.023625 0.02625 0.837375 0.021919078125
98	879617 454 5238 178126 2 33 32 0 0 0 0
99	880071 8745 982 181112 1.241824189294 33.541818819183 324 4 4 1296 5184
100	888816 9077 904 181028 1.24052679124 33.540534412203 324 4 4 1296 5184
101	897893 13253 982 181112 1.241824189294 33.541818819183 324 0.099999346047 0.100012490439 32.399994089418 3.2399988199931
102	911146 13256 904 181028 1.24052679124 33.540534412203 324 0.099999346033 0.100012503968 32.400007080492 3.2400014183616
