file 870186 1512142979                                          
version 2
run SinusoidalAccInjectionAttack-22-20171201-16:42:43-8103
attr CACCSpacing 5
attr attackAcc -30
attr attackPos 7
attr attackSpeed 150
attr attackStart 30
attr attacker 4
attr beaconInterval 0.1
attr configname SinusoidalAccInjectionAttack
attr controller 1
attr datetime 20171201-16:42:43
attr experiment SinusoidalAccInjectionAttack
attr fakeAcc "(4 == 4)"
attr fakePos "(4 == 2)"
attr fakeSpeed "(4 == 3)"
attr inifile omnetpp_22.ini
attr iterationvars "$attacker=4, $attackSpeed=150, $attackPos=7, $attackAcc=-30, $leaderSpeed=100, $controller=1, $CACCSpacing=5, $sController=\"CACC\", $attackStart=30, $0=5, $1=0, $nCars=8, $platoonSize=8, $nLanes=1, $beaconInterval=0.1, $priority=2, $packetSize=200, $ploegH=0.5, $leaderHeadway=1.2, $fakeSpeed=(4 == 3), $fakeAcc=(4 == 4), $fakePos=(4 == 2)"
attr iterationvarsf attacker=4,attackSpeed=150,attackPos=7,attackAcc=-30,leaderSpeed=100,controller=1,CACCSpacing=5,sController=CACC,attackStart=30,5,0,nCars=8,platoonSize=8,nLanes=1,beaconInterval=0.1,priority=2,packetSize=200,ploegH=0.5,leaderHeadway=1.2,fakeSpeed=(4_==_3),fakeAcc=(4_==_4),fakePos=(4_==_2)-
attr leaderHeadway 1.2
attr leaderSpeed 100
attr measurement "$attacker=4, $attackSpeed=150, $attackPos=7, $attackAcc=-30, $leaderSpeed=100, $controller=1, $CACCSpacing=5, $sController=\"CACC\", $attackStart=30, $0=5, $1=0, $nCars=8, $platoonSize=8, $nLanes=1, $beaconInterval=0.1, $priority=2, $packetSize=200, $ploegH=0.5, $leaderHeadway=1.2, $fakeSpeed=(4 == 3), $fakeAcc=(4 == 4), $fakePos=(4 == 2)"
attr nCars 8
attr nLanes 1
attr network scenario
attr packetSize 200
attr platoonSize 8
attr ploegH 0.5
attr priority 2
attr processid 8103
attr repetition 2
attr replication #2
attr resultdir results
attr runnumber 22
attr sController "\"CACC\""
attr seedset 2
param **.coreDebug false
param **.debug false
param **.headway 0.1s
param **.numberOfCars 8
param **.numberOfCarsPerPlatoon 8
param **.numberOfLanes 1
param **.numericController 1
param **.traffic.nCars 8
param **.traffic.nLanes 1
param **.traffic.platoonInsertDistance 5m
param **.traffic.platoonInsertHeadway 0s
param **.traffic.platoonInsertSpeed 100kmph
param **.traffic.platoonInsertTime "1 s"
param **.traffic.platoonLeaderHeadway 1.2s
param **.traffic.platoonSize 8
param **.traffic.platooningVType "\"vtypeauto\""
param **.traffic_type "\"PlatoonsTrafficManager\""
param *.**.nic.mac1609_4.bitrate 6Mbps
param *.**.nic.mac1609_4.txPower 100mW
param *.**.nic.mac1609_4.useServiceChannel false
param *.**.nic.phy80211p.analogueModels "xmldoc(\"config.xml\")"
param *.**.nic.phy80211p.decider "xmldoc(\"config.xml\")"
param *.**.nic.phy80211p.maxTXPower 100mW
param *.**.nic.phy80211p.sensitivity -94dBm
param *.**.nic.phy80211p.thermalNoise -95dBm
param *.**.nic.phy80211p.usePropagationDelay true
param *.**.nic.phy80211p.useThermalNoise true
param *.annotations.draw false
param *.connectionManager.alpha 2.0
param *.connectionManager.carrierFrequency "5.890e9 Hz"
param *.connectionManager.pMax 100mW
param *.connectionManager.sat -94dBm
param *.connectionManager.sendDirect true
param *.manager.autoShutdown true
param *.manager.commandLine "\"sumo --remote-port $port --seed $seed --configuration-file $configFile\""
param *.manager.configFile "\"./sumocfg/freeway.sumo.cfg\""
param *.manager.host "\"localhost\""
param *.manager.margin 25
param *.manager.moduleDisplayString "\"\""
param *.manager.moduleName "\"node\""
param *.manager.moduleType "\"Car\""
param *.manager.updateInterval 0.01s
param *.node[*].appl.attackStart 30s
param *.node[*].appl.attackerType 4
param *.node[*].appl.simulationDuration "60 s"
param *.node[*].appl_type "\"SimplePlatooningApp\""
param *.node[*].helper.nCars 8
param *.node[*].helper.nLanes 1
param *.node[*].helper.platoonSize 8
param *.node[*].helper_type "\"PositionHelper\""
param *.node[*].mobility.x 0
param *.node[*].mobility.y 0
param *.node[*].mobility.z 1.895
param *.node[*].prot.attackStart 30s
param *.node[*].prot.attackerType 4
param *.node[*].prot.attackingNode 3
param *.node[*].prot.beaconingInterval 0.1s
param *.node[*].prot.fakeAcc "(4 == 4)"
param *.node[*].prot.fakePos "(4 == 2)"
param *.node[*].prot.fakeSpeed "(4 == 3)"
param *.node[*].prot.maliciousAcc "-30 mpss"
param *.node[*].prot.maliciousSpeed 150kmph
param *.node[*].prot.packetSize 200
param *.node[*].prot.priority 2
param *.node[*].prot.shiftX "7 m"
param *.node[*].prot.useControllerAcceleration true
param *.node[*].protocol_type "\"SimplePlatooningBeaconing\""
param *.node[*].scenario.accHeadway 0.1s
param *.node[*].scenario.caccC1 0.5
param *.node[*].scenario.caccOmegaN "0.2 Hz"
param *.node[*].scenario.caccSpacing 5m
param *.node[*].scenario.caccXi 1
param *.node[*].scenario.controller "\"CACC\""
param *.node[*].scenario.engineTau "0.5 s"
param *.node[*].scenario.leaderHeadway 1.2s
param *.node[*].scenario.leaderSpeed 100kmph
param *.node[*].scenario.ploegH 0.5s
param *.node[*].scenario.ploegKd 0.7
param *.node[*].scenario.ploegKp 0.2
param *.node[*].scenario.useRealisticEngine false
param *.node[*].scenario_type "\"SinusoidalScenario\""
param *.node[*].unicast.packetLossRate 0
param *.obstacles.debug false
param *.playgroundSizeX 65000m
param *.playgroundSizeY 25000m
param *.playgroundSizeZ 50m
param *.world.use2D false
param *.world.useTorus false

vector 0  scenario.node[0].appl  distance  ETV
vector 1  scenario.node[0].appl  relativeSpeed  ETV
vector 2  scenario.node[0].appl  nodeId  ETV
vector 6  scenario.node[0].appl  acceleration  ETV
vector 7  scenario.node[0].appl  controllerAcceleration  ETV
vector 3  scenario.node[0].appl  speed  ETV
vector 4  scenario.node[0].appl  posx  ETV
vector 5  scenario.node[0].appl  posy  ETV
vector 22  scenario.node[1].appl  distance  ETV
vector 23  scenario.node[1].appl  relativeSpeed  ETV
vector 24  scenario.node[1].appl  nodeId  ETV
vector 28  scenario.node[1].appl  acceleration  ETV
vector 29  scenario.node[1].appl  controllerAcceleration  ETV
vector 25  scenario.node[1].appl  speed  ETV
vector 26  scenario.node[1].appl  posx  ETV
vector 27  scenario.node[1].appl  posy  ETV
vector 44  scenario.node[2].appl  distance  ETV
vector 45  scenario.node[2].appl  relativeSpeed  ETV
vector 46  scenario.node[2].appl  nodeId  ETV
vector 50  scenario.node[2].appl  acceleration  ETV
vector 51  scenario.node[2].appl  controllerAcceleration  ETV
vector 47  scenario.node[2].appl  speed  ETV
vector 48  scenario.node[2].appl  posx  ETV
vector 49  scenario.node[2].appl  posy  ETV
vector 66  scenario.node[3].appl  distance  ETV
vector 67  scenario.node[3].appl  relativeSpeed  ETV
vector 68  scenario.node[3].appl  nodeId  ETV
vector 72  scenario.node[3].appl  acceleration  ETV
vector 73  scenario.node[3].appl  controllerAcceleration  ETV
vector 69  scenario.node[3].appl  speed  ETV
vector 70  scenario.node[3].appl  posx  ETV
vector 71  scenario.node[3].appl  posy  ETV
vector 88  scenario.node[4].appl  distance  ETV
vector 89  scenario.node[4].appl  relativeSpeed  ETV
vector 90  scenario.node[4].appl  nodeId  ETV
vector 94  scenario.node[4].appl  acceleration  ETV
vector 95  scenario.node[4].appl  controllerAcceleration  ETV
vector 91  scenario.node[4].appl  speed  ETV
vector 92  scenario.node[4].appl  posx  ETV
vector 93  scenario.node[4].appl  posy  ETV
vector 110  scenario.node[5].appl  distance  ETV
vector 111  scenario.node[5].appl  relativeSpeed  ETV
vector 112  scenario.node[5].appl  nodeId  ETV
vector 116  scenario.node[5].appl  acceleration  ETV
vector 117  scenario.node[5].appl  controllerAcceleration  ETV
vector 113  scenario.node[5].appl  speed  ETV
vector 114  scenario.node[5].appl  posx  ETV
vector 115  scenario.node[5].appl  posy  ETV
vector 132  scenario.node[6].appl  distance  ETV
vector 133  scenario.node[6].appl  relativeSpeed  ETV
vector 134  scenario.node[6].appl  nodeId  ETV
vector 138  scenario.node[6].appl  acceleration  ETV
vector 139  scenario.node[6].appl  controllerAcceleration  ETV
vector 135  scenario.node[6].appl  speed  ETV
vector 136  scenario.node[6].appl  posx  ETV
vector 137  scenario.node[6].appl  posy  ETV
vector 154  scenario.node[7].appl  distance  ETV
vector 155  scenario.node[7].appl  relativeSpeed  ETV
vector 156  scenario.node[7].appl  nodeId  ETV
vector 160  scenario.node[7].appl  acceleration  ETV
vector 161  scenario.node[7].appl  controllerAcceleration  ETV
vector 157  scenario.node[7].appl  speed  ETV
vector 158  scenario.node[7].appl  posx  ETV
vector 159  scenario.node[7].appl  posy  ETV
vector 168  scenario.node[7].prot  frontDelay  ETV
vector 166  scenario.node[7].prot  frontDelayId  ETV
vector 146  scenario.node[6].prot  frontDelay  ETV
vector 144  scenario.node[6].prot  frontDelayId  ETV
vector 35  scenario.node[1].prot  leaderDelay  ETV
vector 33  scenario.node[1].prot  leaderDelayId  ETV
vector 36  scenario.node[1].prot  frontDelay  ETV
vector 34  scenario.node[1].prot  frontDelayId  ETV
vector 57  scenario.node[2].prot  leaderDelay  ETV
vector 55  scenario.node[2].prot  leaderDelayId  ETV
vector 79  scenario.node[3].prot  leaderDelay  ETV
vector 77  scenario.node[3].prot  leaderDelayId  ETV
vector 101  scenario.node[4].prot  leaderDelay  ETV
vector 99  scenario.node[4].prot  leaderDelayId  ETV
vector 123  scenario.node[5].prot  leaderDelay  ETV
vector 121  scenario.node[5].prot  leaderDelayId  ETV
vector 145  scenario.node[6].prot  leaderDelay  ETV
vector 143  scenario.node[6].prot  leaderDelayId  ETV
vector 167  scenario.node[7].prot  leaderDelay  ETV
vector 165  scenario.node[7].prot  leaderDelayId  ETV
vector 102  scenario.node[4].prot  frontDelay  ETV
vector 100  scenario.node[4].prot  frontDelayId  ETV
vector 80  scenario.node[3].prot  frontDelay  ETV
vector 78  scenario.node[3].prot  frontDelayId  ETV
vector 124  scenario.node[5].prot  frontDelay  ETV
vector 122  scenario.node[5].prot  frontDelayId  ETV
vector 58  scenario.node[2].prot  frontDelay  ETV
vector 56  scenario.node[2].prot  frontDelayId  ETV
vector 8  scenario.node[0].prot  nodeId  ETV
vector 9  scenario.node[0].prot  busyTime  ETV
vector 10  scenario.node[0].prot  collisions  ETV
vector 30  scenario.node[1].prot  nodeId  ETV
vector 31  scenario.node[1].prot  busyTime  ETV
vector 32  scenario.node[1].prot  collisions  ETV
vector 52  scenario.node[2].prot  nodeId  ETV
vector 53  scenario.node[2].prot  busyTime  ETV
vector 54  scenario.node[2].prot  collisions  ETV
vector 74  scenario.node[3].prot  nodeId  ETV
vector 75  scenario.node[3].prot  busyTime  ETV
vector 76  scenario.node[3].prot  collisions  ETV
vector 96  scenario.node[4].prot  nodeId  ETV
vector 97  scenario.node[4].prot  busyTime  ETV
vector 98  scenario.node[4].prot  collisions  ETV
vector 118  scenario.node[5].prot  nodeId  ETV
vector 119  scenario.node[5].prot  busyTime  ETV
vector 120  scenario.node[5].prot  collisions  ETV
vector 140  scenario.node[6].prot  nodeId  ETV
vector 141  scenario.node[6].prot  busyTime  ETV
vector 142  scenario.node[6].prot  collisions  ETV
vector 162  scenario.node[7].prot  nodeId  ETV
vector 163  scenario.node[7].prot  busyTime  ETV
vector 164  scenario.node[7].prot  collisions  ETV
7	11077 7288 232 170876 1.11 31.71 307 -1.5 1.5 12.322360323987 486.51089741013
6	18365 9630 232 170876 1.11 31.71 307 -1.4722746794938 1.4513241957726 4.2998695572294 325.22513591436
5	27995 6159 232 170876 1.11 31.71 307 36.55 36.55 11220.85 410122.0675
4	34154 9197 232 170876 1.11 31.71 307 100.67108077976 953.74750245589 162333.68561682 104615319.04525
3	43351 9195 232 170876 1.11 31.71 307 26.488037261118 29.742492528104 8558.6818719354 238828.12257257
1	52546 4931 232 170876 1.11 31.71 307 0 0 0 0
0	57477 5238 232 170876 1.11 31.71 307 -1 -1 -307 307
2	62715 4931 232 170876 1.11 31.71 307 0 0 0 0
10	67646 423 5168 166900 2 31 30 0 0 0 0
9	68069 574 5168 166900 2 31 30 0.023297 0.02625 0.784547 0.020525562709
8	68643 393 5168 166900 2 31 30 0 0 0 0
29	69036 9853 233 170877 1.11 31.71 307 -1.523393431168 1.5241491852394 10.799583705295 492.08393924276
28	78889 9913 233 170877 1.11 31.71 307 -1.4872877338334 1.4631892484314 3.3460426859936 327.4659000897
27	88802 6466 233 170877 1.11 31.71 307 36.55 36.55 11220.85 410122.0675
26	95268 9495 233 170877 1.11 31.71 307 91.671076965332 944.71659570325 159568.67007685 101717651.06573
25	104763 9497 233 170877 1.11 31.71 307 26.480495449638 29.747905211783 8558.338762953 238811.78817435
23	114260 10390 233 170877 1.11 31.71 307 -0.085370874489843 0.085492720331722 0.30011028679251 1.1822461847181
22	124650 9499 233 170877 1.11 31.71 307 4.9094714772849 5.1291569272015 1537.0086777915 7696.1824891521
24	134149 5238 233 170877 1.11 31.71 307 1 1 307 307
36	139387 12149 1034 170565 1.262216930646 31.662213123118 305 0.099998659109 0.100011673737 30.49999485293 3.0499989752921
35	151536 12149 1034 170565 1.262216930646 31.662213123118 305 0.099998659109 0.100011673737 30.49999485293 3.0499989752921
34	163685 8216 1034 170565 1.262216930646 31.662213123118 305 1 1 305 305
33	171901 8216 1034 170565 1.262216930646 31.662213123118 305 1 1 305 305
32	180117 423 5169 166901 2 31 30 0 0 0 0
31	180540 604 5169 166901 2 31 30 0.023296 0.02625 0.784546 0.020525516116
30	181144 423 5169 166901 2 31 30 1 1 30 30
51	181567 9831 234 170878 1.11 31.71 307 -1.4963007061426 1.4967154530627 9.9558301071073 471.82652700947
50	191398 9889 234 170878 1.11 31.71 307 -1.4778825511858 1.4525906626389 3.0366001291455 323.92183242481
49	201287 6466 234 170878 1.11 31.71 307 36.55 36.55 11220.85 410122.0675
48	207753 9499 234 170878 1.11 31.71 307 82.671076965332 935.71597086648 156804.55512482 98869808.071292
47	217252 9509 234 170878 1.11 31.71 307 26.486728987222 29.742197225852 8558.3224243256 238808.64356222
45	226761 10452 234 170878 1.11 31.71 307 -0.01940609115637 0.017598484001979 -0.017121799436715 0.032760003555305
44	237213 9499 234 170878 1.11 31.71 307 4.9758459057372 5.0458892399179 1536.1146252569 7686.2462137593
46	246712 5238 234 170878 1.11 31.71 307 2 2 614 1228
58	251950 12174 1312 170838 1.302609200833 31.702605460197 305 0.099998659095 0.100011705713 30.500007919822 3.0500015888054
57	264124 12153 1040 170571 1.262216960667 31.662213153137 305 0.099998659109 0.100011673743 30.499994852928 3.0499989752917
56	276277 8237 1312 170838 1.302609200833 31.702605460197 305 2 2 610 1220
55	284514 8222 1040 170571 1.262216960667 31.662213153137 305 2 2 610 1220
54	292736 423 5170 166902 2 31 30 0 0 0 0
53	293159 604 5170 166902 2 31 30 0.023297 0.02625 0.784547 0.020525562709
52	293763 423 5170 166902 2 31 30 2 2 60 120
73	294186 9863 235 170879 1.11 31.71 307 -1.5144504202722 1.515444167014 10.350324550562 482.36425029341
72	304049 9917 235 170879 1.11 31.71 307 -1.4663369050815 1.4406082190575 2.8470161451793 318.01826452378
71	313966 6466 235 170879 1.11 31.71 307 36.55 36.55 11220.85 410122.0675
70	320432 9493 235 170879 1.11 31.71 307 73.671076965332 926.720777594 154040.37245506 96071703.711042
69	329925 9510 235 170879 1.11 31.71 307 26.498340218155 29.729722568859 8558.3634206225 238807.30144566
67	339435 10524 235 170879 1.11 31.71 307 -0.015760221557269 0.014948748977439 -0.071362298201979 0.018276402544977
66	349959 9487 235 170879 1.11 31.71 307 4.9816113590248 5.0406527211558 1536.1834896911 7686.9036848226
68	359446 5238 235 170879 1.11 31.71 307 3 3 921 2763
80	364684 12156 1176 170701 1.287873050729 31.687882243143 305 0.099998659102 0.100011706841 30.500007852872 3.0500015754156
79	376840 12162 1046 170577 1.262216990687 31.662213183138 305 0.099998659106 0.100011673745 30.499994852909 3.0499989752879
78	389002 8221 1176 170701 1.287873050729 31.687882243143 305 3 3 915 2745
77	397223 8222 1046 170577 1.262216990687 31.662213183138 305 3 3 915 2745
76	405445 423 5171 166903 2 31 30 0 0 0 0
75	405868 604 5171 166903 2 31 30 0.023297 0.02625 0.784547 0.020525562709
74	406472 423 5171 166903 2 31 30 3 3 90 270
95	406895 9890 236 170880 1.11 31.71 307 -14.359663268008 1.5032357080987 -211.94276126033 2788.9093313327
94	416785 9786 236 170880 1.11 31.71 307 -9 1.4309616964194 -145.53438353667 1423.5426133008
93	426571 6466 236 170880 1.11 31.71 307 36.55 36.55 11220.85 410122.0675
92	433037 9507 236 170880 1.11 31.71 307 64.671076965332 907.32423308201 151220.34401133 93222133.162237
91	442544 9495 236 170880 1.11 31.71 307 13.632143583629 29.716962134681 8449.2864914863 233890.29858018
89	452039 10452 236 170880 1.11 31.71 307 -0.013273962256008 14.351846712569 109.04845897473 1064.903893562
88	462491 9491 236 170880 1.11 31.71 307 4.9908448578595 15.109224825426 1589.846905142 8567.5539059342
90	471982 5238 236 170880 1.11 31.71 307 4 4 1228 4912
102	477220 12448 1108 170645 1.276579020708 31.676588245931 305 0.099998659103 0.100011710672 30.500007885681 3.0500015819774
101	489668 12437 1052 170583 1.262217020708 31.662213245463 305 0.099998659103 0.100011675843 30.499994885213 3.0499989817487
100	502105 8520 1108 170645 1.276579020708 31.676588245931 305 4 4 1220 4880
99	510625 8208 1052 170583 1.262217020708 31.662213245463 305 4 4 1220 4880
98	518833 423 5172 166904 2 31 30 0 0 0 0
97	519256 604 5172 166904 2 31 30 0.023297 0.02625 0.784547 0.020525562709
96	519860 423 5172 166904 2 31 30 4 4 120 480
139	520283 10178 238 170882 1.11 31.71 307 -2.5182561952146 1.495835768114 -52.749636250256 528.982122462
138	530461 10240 238 170882 1.11 31.71 307 -2.3117392703416 1.4357065185848 -41.558807566966 355.06201586101
137	540701 6773 238 170882 1.11 31.71 307 36.55 36.55 11220.85 410122.0675
136	547474 9805 238 170882 1.11 31.71 307 46.671078872681 896.9904742624 145734.25166791 87950333.625414
135	557279 9804 238 170882 1.11 31.71 307 23.72874011529 29.721657035874 8529.5349118904 237304.66325269
133	567083 10882 238 170882 1.11 31.71 307 -3.9429214583962 0.011156227949815 -29.685745395512 79.924350630534
132	577965 9793 238 170882 1.11 31.71 307 2.1704256936272 5.0279109057233 1521.0975635052 7563.0473474119
134	587758 5545 238 170882 1.11 31.71 307 6 6 1842 11052
146	593303 12506 970 171058 1.247594780542 31.747602679538 306 0.099998659092 0.100011721935 30.600006559454 3.0600013167342
145	605809 12447 1064 170595 1.26221708075 31.662213281603 305 0.099998659106 0.100011674251 30.499994861311 3.0499989769683
144	618256 8550 970 171058 1.247594780542 31.747602679538 306 6 6 1836 11016
143	626806 8521 1064 170595 1.26221708075 31.662213281603 305 6 6 1830 10980
142	635327 453 5174 166906 2 31 30 0 0 0 0
141	635780 634 5174 166906 2 31 30 0.023297 0.02625 0.784547 0.020525562709
140	636414 453 5174 166906 2 31 30 6 6 180 1080
161	636867 10193 239 170883 1.11 31.71 307 -1.4854568329602 1.4867112355309 -22.285887329073 431.04035775
160	647060 10253 239 170883 1.11 31.71 307 -1.4553421981653 1.4301187314359 -19.601195450083 299.57509009805
159	657313 6773 239 170883 1.11 31.71 307 36.55 36.55 11220.85 410122.0675
158	664086 9818 239 170883 1.11 31.71 307 37.671077919006 889.45151590411 142977.65495969 85364275.452614
157	673904 9817 239 170883 1.11 31.71 307 25.847348667941 29.715544865818 8544.9004486187 238083.31382694
155	683721 10895 239 170883 1.11 31.71 307 -2.0954911599475 0.0095544638576186 -14.949948652602 21.311059971593
154	694616 9801 239 170883 1.11 31.71 307 3.5813305293401 5.0149087741407 1528.9040189524 7620.5881385776
156	704417 5545 239 170883 1.11 31.71 307 7 7 2149 15043
168	709962 12510 832 170920 1.212136690479 31.712131614375 306 0.09999865909 0.100011690662 30.599993584354 3.059998721579
167	722472 12462 1070 170601 1.26221711077 31.6622133071 305 0.099998659104 0.10001167397 30.499994856788 3.0499989760637
166	734934 8562 832 170920 1.212136690479 31.712131614375 306 7 7 2142 14994
165	743496 8524 1070 170601 1.26221711077 31.6622133071 305 7 7 2135 14945
164	752020 453 5175 166907 2 31 30 0 0 0 0
163	752473 634 5175 166907 2 31 30 0.023297 0.02625 0.784547 0.020525562709
162	753107 453 5175 166907 2 31 30 7 7 210 1470
110	753560 9832 237 171090 1.11 31.75 308 0 5.0245318815316 1510.5997483245 7507.2074367638
111	763392 10684 237 171090 1.11 31.75 308 -6.2107482480312 0.032962817415665 -54.492383515235 241.40006669912
112	774076 5564 237 171090 1.11 31.75 308 5 5 1540 7700
113	779640 9844 237 171090 1.11 31.75 308 19.53919130062 29.71821086177 8518.5626618895 236260.0854934
114	789484 9841 237 171090 1.11 31.75 308 55.671078872681 903.86360004504 149386.60260264 91388268.42362
115	799325 6796 237 171090 1.11 31.75 308 36.55 36.55 11257.4 411457.97
116	806121 10272 237 171090 1.11 31.75 308 -5.1739312706246 1.4330842524103 -87.474184881284 643.71027868698
117	816393 10224 237 171090 1.11 31.75 308 -6.542852035843 1.5107019123028 -115.23474267606 1012.0124425463
118	826617 453 5173 166905 2 31 30 5 5 150 750
119	827070 634 5173 166905 2 31 30 0.023297 0.02625 0.784547 0.020525562709
120	827704 453 5173 166905 2 31 30 0 0 0 0
121	828157 8542 1058 170589 1.262217050729 31.662213260627 305 5 5 1525 7625
122	836699 8540 1244 170769 1.297503110771 31.69751232097 305 5 5 1525 7625
123	845239 12482 1058 170589 1.262217050729 31.662213260627 305 0.099998659103 0.100011674826 30.499994870356 3.0499989787773
124	857721 12465 1244 170769 1.297503110771 31.69751232097 305 0.0999986591 0.1000117183 30.500007870657 3.0500015789729
