file 892817 1512144266                                          
version 2
run SinusoidalAccInjectionAttack-261-20171201-17:04:08-13397
attr CACCSpacing 5
attr attackAcc 30
attr attackPos 7
attr attackSpeed 150
attr attackStart 30
attr attacker 4
attr beaconInterval 0.1
attr configname SinusoidalAccInjectionAttack
attr controller 1
attr datetime 20171201-17:04:08
attr experiment SinusoidalAccInjectionAttack
attr fakeAcc "(4 == 4)"
attr fakePos "(4 == 2)"
attr fakeSpeed "(4 == 3)"
attr inifile omnetpp_261.ini
attr iterationvars "$attacker=4, $attackSpeed=150, $attackPos=7, $attackAcc=30, $leaderSpeed=100, $controller=1, $CACCSpacing=5, $sController=\"CACC\", $attackStart=30, $0=5, $1=0, $nCars=8, $platoonSize=8, $nLanes=1, $beaconInterval=0.1, $priority=2, $packetSize=200, $ploegH=0.5, $leaderHeadway=1.2, $fakeSpeed=(4 == 3), $fakeAcc=(4 == 4), $fakePos=(4 == 2)"
attr iterationvarsf attacker=4,attackSpeed=150,attackPos=7,attackAcc=30,leaderSpeed=100,controller=1,CACCSpacing=5,sController=CACC,attackStart=30,5,0,nCars=8,platoonSize=8,nLanes=1,beaconInterval=0.1,priority=2,packetSize=200,ploegH=0.5,leaderHeadway=1.2,fakeSpeed=(4_==_3),fakeAcc=(4_==_4),fakePos=(4_==_2)-
attr leaderHeadway 1.2
attr leaderSpeed 100
attr measurement "$attacker=4, $attackSpeed=150, $attackPos=7, $attackAcc=30, $leaderSpeed=100, $controller=1, $CACCSpacing=5, $sController=\"CACC\", $attackStart=30, $0=5, $1=0, $nCars=8, $platoonSize=8, $nLanes=1, $beaconInterval=0.1, $priority=2, $packetSize=200, $ploegH=0.5, $leaderHeadway=1.2, $fakeSpeed=(4 == 3), $fakeAcc=(4 == 4), $fakePos=(4 == 2)"
attr nCars 8
attr nLanes 1
attr network scenario
attr packetSize 200
attr platoonSize 8
attr ploegH 0.5
attr priority 2
attr processid 13397
attr repetition 1
attr replication #1
attr resultdir results
attr runnumber 261
attr sController "\"CACC\""
attr seedset 1
param **.coreDebug false
param **.debug false
param **.headway 0.1s
param **.numberOfCars 8
param **.numberOfCarsPerPlatoon 8
param **.numberOfLanes 1
param **.numericController 1
param **.traffic.nCars 8
param **.traffic.nLanes 1
param **.traffic.platoonInsertDistance 5m
param **.traffic.platoonInsertHeadway 0s
param **.traffic.platoonInsertSpeed 100kmph
param **.traffic.platoonInsertTime "1 s"
param **.traffic.platoonLeaderHeadway 1.2s
param **.traffic.platoonSize 8
param **.traffic.platooningVType "\"vtypeauto\""
param **.traffic_type "\"PlatoonsTrafficManager\""
param *.**.nic.mac1609_4.bitrate 6Mbps
param *.**.nic.mac1609_4.txPower 100mW
param *.**.nic.mac1609_4.useServiceChannel false
param *.**.nic.phy80211p.analogueModels "xmldoc(\"config.xml\")"
param *.**.nic.phy80211p.decider "xmldoc(\"config.xml\")"
param *.**.nic.phy80211p.maxTXPower 100mW
param *.**.nic.phy80211p.sensitivity -94dBm
param *.**.nic.phy80211p.thermalNoise -95dBm
param *.**.nic.phy80211p.usePropagationDelay true
param *.**.nic.phy80211p.useThermalNoise true
param *.annotations.draw false
param *.connectionManager.alpha 2.0
param *.connectionManager.carrierFrequency "5.890e9 Hz"
param *.connectionManager.pMax 100mW
param *.connectionManager.sat -94dBm
param *.connectionManager.sendDirect true
param *.manager.autoShutdown true
param *.manager.commandLine "\"sumo --remote-port $port --seed $seed --configuration-file $configFile\""
param *.manager.configFile "\"./sumocfg/freeway.sumo.cfg\""
param *.manager.host "\"localhost\""
param *.manager.margin 25
param *.manager.moduleDisplayString "\"\""
param *.manager.moduleName "\"node\""
param *.manager.moduleType "\"Car\""
param *.manager.updateInterval 0.01s
param *.node[*].appl.attackStart 30s
param *.node[*].appl.attackerType 4
param *.node[*].appl.simulationDuration "60 s"
param *.node[*].appl_type "\"SimplePlatooningApp\""
param *.node[*].helper.nCars 8
param *.node[*].helper.nLanes 1
param *.node[*].helper.platoonSize 8
param *.node[*].helper_type "\"PositionHelper\""
param *.node[*].mobility.x 0
param *.node[*].mobility.y 0
param *.node[*].mobility.z 1.895
param *.node[*].prot.attackStart 30s
param *.node[*].prot.attackerType 4
param *.node[*].prot.attackingNode 3
param *.node[*].prot.beaconingInterval 0.1s
param *.node[*].prot.fakeAcc "(4 == 4)"
param *.node[*].prot.fakePos "(4 == 2)"
param *.node[*].prot.fakeSpeed "(4 == 3)"
param *.node[*].prot.maliciousAcc "30 mpss"
param *.node[*].prot.maliciousSpeed 150kmph
param *.node[*].prot.packetSize 200
param *.node[*].prot.priority 2
param *.node[*].prot.shiftX "7 m"
param *.node[*].prot.useControllerAcceleration true
param *.node[*].protocol_type "\"SimplePlatooningBeaconing\""
param *.node[*].scenario.accHeadway 0.1s
param *.node[*].scenario.caccC1 0.5
param *.node[*].scenario.caccOmegaN "0.2 Hz"
param *.node[*].scenario.caccSpacing 5m
param *.node[*].scenario.caccXi 1
param *.node[*].scenario.controller "\"CACC\""
param *.node[*].scenario.engineTau "0.5 s"
param *.node[*].scenario.leaderHeadway 1.2s
param *.node[*].scenario.leaderSpeed 100kmph
param *.node[*].scenario.ploegH 0.5s
param *.node[*].scenario.ploegKd 0.7
param *.node[*].scenario.ploegKp 0.2
param *.node[*].scenario.useRealisticEngine false
param *.node[*].scenario_type "\"SinusoidalScenario\""
param *.node[*].unicast.packetLossRate 0
param *.obstacles.debug false
param *.playgroundSizeX 65000m
param *.playgroundSizeY 25000m
param *.playgroundSizeZ 50m
param *.world.use2D false
param *.world.useTorus false

vector 0  scenario.node[0].appl  distance  ETV
vector 1  scenario.node[0].appl  relativeSpeed  ETV
vector 2  scenario.node[0].appl  nodeId  ETV
vector 6  scenario.node[0].appl  acceleration  ETV
vector 7  scenario.node[0].appl  controllerAcceleration  ETV
vector 3  scenario.node[0].appl  speed  ETV
vector 4  scenario.node[0].appl  posx  ETV
vector 5  scenario.node[0].appl  posy  ETV
vector 22  scenario.node[1].appl  distance  ETV
vector 23  scenario.node[1].appl  relativeSpeed  ETV
vector 24  scenario.node[1].appl  nodeId  ETV
vector 28  scenario.node[1].appl  acceleration  ETV
vector 29  scenario.node[1].appl  controllerAcceleration  ETV
vector 25  scenario.node[1].appl  speed  ETV
vector 26  scenario.node[1].appl  posx  ETV
vector 27  scenario.node[1].appl  posy  ETV
vector 44  scenario.node[2].appl  distance  ETV
vector 45  scenario.node[2].appl  relativeSpeed  ETV
vector 46  scenario.node[2].appl  nodeId  ETV
vector 50  scenario.node[2].appl  acceleration  ETV
vector 51  scenario.node[2].appl  controllerAcceleration  ETV
vector 47  scenario.node[2].appl  speed  ETV
vector 48  scenario.node[2].appl  posx  ETV
vector 49  scenario.node[2].appl  posy  ETV
vector 66  scenario.node[3].appl  distance  ETV
vector 67  scenario.node[3].appl  relativeSpeed  ETV
vector 68  scenario.node[3].appl  nodeId  ETV
vector 72  scenario.node[3].appl  acceleration  ETV
vector 73  scenario.node[3].appl  controllerAcceleration  ETV
vector 69  scenario.node[3].appl  speed  ETV
vector 70  scenario.node[3].appl  posx  ETV
vector 71  scenario.node[3].appl  posy  ETV
vector 88  scenario.node[4].appl  distance  ETV
vector 89  scenario.node[4].appl  relativeSpeed  ETV
vector 90  scenario.node[4].appl  nodeId  ETV
vector 94  scenario.node[4].appl  acceleration  ETV
vector 95  scenario.node[4].appl  controllerAcceleration  ETV
vector 91  scenario.node[4].appl  speed  ETV
vector 92  scenario.node[4].appl  posx  ETV
vector 93  scenario.node[4].appl  posy  ETV
vector 110  scenario.node[5].appl  distance  ETV
vector 111  scenario.node[5].appl  relativeSpeed  ETV
vector 112  scenario.node[5].appl  nodeId  ETV
vector 116  scenario.node[5].appl  acceleration  ETV
vector 117  scenario.node[5].appl  controllerAcceleration  ETV
vector 113  scenario.node[5].appl  speed  ETV
vector 114  scenario.node[5].appl  posx  ETV
vector 115  scenario.node[5].appl  posy  ETV
vector 132  scenario.node[6].appl  distance  ETV
vector 133  scenario.node[6].appl  relativeSpeed  ETV
vector 134  scenario.node[6].appl  nodeId  ETV
vector 138  scenario.node[6].appl  acceleration  ETV
vector 139  scenario.node[6].appl  controllerAcceleration  ETV
vector 135  scenario.node[6].appl  speed  ETV
vector 136  scenario.node[6].appl  posx  ETV
vector 137  scenario.node[6].appl  posy  ETV
vector 154  scenario.node[7].appl  distance  ETV
vector 155  scenario.node[7].appl  relativeSpeed  ETV
vector 156  scenario.node[7].appl  nodeId  ETV
vector 160  scenario.node[7].appl  acceleration  ETV
vector 161  scenario.node[7].appl  controllerAcceleration  ETV
vector 157  scenario.node[7].appl  speed  ETV
vector 158  scenario.node[7].appl  posx  ETV
vector 159  scenario.node[7].appl  posy  ETV
vector 58  scenario.node[2].prot  frontDelay  ETV
vector 56  scenario.node[2].prot  frontDelayId  ETV
vector 102  scenario.node[4].prot  frontDelay  ETV
vector 100  scenario.node[4].prot  frontDelayId  ETV
vector 146  scenario.node[6].prot  frontDelay  ETV
vector 144  scenario.node[6].prot  frontDelayId  ETV
vector 168  scenario.node[7].prot  frontDelay  ETV
vector 166  scenario.node[7].prot  frontDelayId  ETV
vector 124  scenario.node[5].prot  frontDelay  ETV
vector 122  scenario.node[5].prot  frontDelayId  ETV
vector 35  scenario.node[1].prot  leaderDelay  ETV
vector 33  scenario.node[1].prot  leaderDelayId  ETV
vector 36  scenario.node[1].prot  frontDelay  ETV
vector 34  scenario.node[1].prot  frontDelayId  ETV
vector 57  scenario.node[2].prot  leaderDelay  ETV
vector 55  scenario.node[2].prot  leaderDelayId  ETV
vector 79  scenario.node[3].prot  leaderDelay  ETV
vector 77  scenario.node[3].prot  leaderDelayId  ETV
vector 101  scenario.node[4].prot  leaderDelay  ETV
vector 99  scenario.node[4].prot  leaderDelayId  ETV
vector 123  scenario.node[5].prot  leaderDelay  ETV
vector 121  scenario.node[5].prot  leaderDelayId  ETV
vector 145  scenario.node[6].prot  leaderDelay  ETV
vector 143  scenario.node[6].prot  leaderDelayId  ETV
vector 167  scenario.node[7].prot  leaderDelay  ETV
vector 165  scenario.node[7].prot  leaderDelayId  ETV
vector 80  scenario.node[3].prot  frontDelay  ETV
vector 78  scenario.node[3].prot  frontDelayId  ETV
vector 8  scenario.node[0].prot  nodeId  ETV
vector 9  scenario.node[0].prot  busyTime  ETV
vector 10  scenario.node[0].prot  collisions  ETV
vector 30  scenario.node[1].prot  nodeId  ETV
vector 31  scenario.node[1].prot  busyTime  ETV
vector 32  scenario.node[1].prot  collisions  ETV
vector 52  scenario.node[2].prot  nodeId  ETV
vector 53  scenario.node[2].prot  busyTime  ETV
vector 54  scenario.node[2].prot  collisions  ETV
vector 74  scenario.node[3].prot  nodeId  ETV
vector 75  scenario.node[3].prot  busyTime  ETV
vector 76  scenario.node[3].prot  collisions  ETV
vector 96  scenario.node[4].prot  nodeId  ETV
vector 97  scenario.node[4].prot  busyTime  ETV
vector 98  scenario.node[4].prot  collisions  ETV
vector 118  scenario.node[5].prot  nodeId  ETV
vector 119  scenario.node[5].prot  busyTime  ETV
vector 120  scenario.node[5].prot  collisions  ETV
vector 140  scenario.node[6].prot  nodeId  ETV
vector 141  scenario.node[6].prot  busyTime  ETV
vector 142  scenario.node[6].prot  collisions  ETV
vector 162  scenario.node[7].prot  nodeId  ETV
vector 163  scenario.node[7].prot  busyTime  ETV
vector 164  scenario.node[7].prot  collisions  ETV
7	11077 7532 232 175340 1.11 32.51 315 -1.5 1.5 13.746018686734 493.80984025099
6	18609 9877 232 175340 1.11 32.51 315 -1.4722746794938 1.451340770512 12.847976342246 335.54193352307
5	28486 6327 232 175340 1.11 32.51 315 36.55 36.55 11513.25 420809.2875
4	34813 9438 232 175340 1.11 32.51 315 98.383170318337 974.41023267315 169345.76282115 111313586.26992
3	44251 9443 232 175340 1.11 32.51 315 26.488037261118 29.742492528104 8788.4962102338 245430.48213431
1	53694 5067 232 175340 1.11 32.51 315 0 0 0 0
0	58761 5382 232 175340 1.11 32.51 315 -1 -1 -315 315
2	64143 5067 232 175340 1.11 32.51 315 0 0 0 0
10	69210 438 5168 172478 2 32 31 0 0 0 0
9	69648 594 5168 172478 2 32 31 0.023297 0.02625 0.810797 0.021214625209
8	70242 407 5168 172478 2 32 31 0 0 0 0
29	70649 10115 233 175341 1.11 32.51 315 -1.5555551923497 1.5570065800035 14.961901913153 514.34296418281
28	80764 10177 233 175341 1.11 32.51 315 -1.4954736408896 1.4761401705229 12.689356354006 344.42697001478
27	90941 6642 233 175341 1.11 32.51 315 36.55 36.55 11513.25 420809.2875
26	97583 9765 233 175341 1.11 32.51 315 89.383170318604 965.28142309904 166504.03222766 108285304.0117
25	107348 9758 233 175341 1.11 32.51 315 26.471628442235 29.751301063749 8787.2004524445 245362.71046666
23	117106 10509 233 175341 1.11 32.51 315 -0.12424054519698 0.12345092645667 1.1672780259129 2.5352693996167
22	127615 9761 233 175341 1.11 32.51 315 4.8776197047713 5.1830414327686 1581.7046783307 7944.3115804424
24	137376 5382 233 175341 1.11 32.51 315 1 1 315 315
36	142758 12487 1238 175233 1.297801900626 32.497808806428 313 0.099998464161 0.100011482557 31.300005386136 3.130001082741
35	155245 12487 1238 175233 1.297801900626 32.497808806428 313 0.099998464161 0.100011482557 31.300005386136 3.130001082741
34	167732 8445 1238 175233 1.297801900626 32.497808806428 313 1 1 313 313
33	176177 8445 1238 175233 1.297801900626 32.497808806428 313 1 1 313 313
32	184622 438 5169 172479 2 32 31 0 0 0 0
31	185060 625 5169 172479 2 32 31 0.023297 0.02625 0.810797 0.021214625209
30	185685 438 5169 172479 2 32 31 1 1 31 31
51	186123 10121 234 175342 1.11 32.51 315 -1.5092135970071 1.5122039357142 14.998521876283 487.64060345674
50	196244 10175 234 175342 1.11 32.51 315 -1.4841297343438 1.4673660726388 12.561020406022 339.41136992627
49	206419 6642 234 175342 1.11 32.51 315 36.55 36.55 11513.25 420809.2875
48	213061 9758 234 175342 1.11 32.51 315 80.383170318604 956.26981779737 163665.89336355 105310690.94619
47	222819 9754 234 175342 1.11 32.51 315 26.481984096406 29.739897711456 8787.0797301608 245352.42790482
45	232573 10890 234 175342 1.11 32.51 315 -0.010773794236499 0.012241035970902 -0.0061712798150815 0.01348074151035
44	243463 9746 234 175342 1.11 32.51 315 4.9921308160752 5.0331336978487 1578.1364496656 7906.4317661144
46	253209 5382 234 175342 1.11 32.51 315 2 2 630 1260
58	258591 12523 832 175378 1.212435510355 32.512440896604 314 0.099998465705 0.100011482567 31.400003866583 3.1400007788326
57	271114 12490 1244 175239 1.297801930647 32.497808836486 313 0.099998464165 0.100011482561 31.300005386173 3.1300010827484
56	283604 8479 832 175378 1.212435510355 32.512440896604 314 2 2 628 1256
55	292083 8446 1244 175239 1.297801930647 32.497808836486 313 2 2 626 1252
54	300529 438 5170 172480 2 32 31 0 0 0 0
53	300967 625 5170 172480 2 32 31 0.023296 0.02625 0.810796 0.021214578616
52	301592 438 5170 172480 2 32 31 2 2 62 124
73	302030 10096 235 175343 1.11 32.51 315 -1.4954488811835 1.498650847703 14.967440069512 473.28512778984
72	312126 10168 235 175343 1.11 32.51 315 -1.4697266297038 1.4522561963027 12.344233354065 332.83132803136
71	322294 6642 235 175343 1.11 32.51 315 36.55 36.55 11513.25 420809.2875
70	328936 9752 235 175343 1.11 32.51 315 71.383170318604 947.24713163054 160827.89810031 102387620.11708
69	338688 9765 235 175343 1.11 32.51 315 26.496775097931 29.72489769669 8786.8449973379 245334.80843885
67	348453 10736 235 175343 1.11 32.51 315 -0.021936205129379 0.021653873671916 0.1091226187839 0.0427863189415
66	359189 9728 235 175343 1.11 32.51 315 4.9809316245654 5.0520778879205 1577.9905685858 7905.0354602289
68	368917 5382 235 175343 1.11 32.51 315 3 3 945 2835
80	374299 12481 1312 175308 1.307223960668 32.507217866582 313 0.099998464174 0.10001148239 31.299992386248 3.1299984826341
79	386780 12502 1250 175245 1.297801960667 32.497808866581 313 0.099998464174 0.100011482564 31.300005386248 3.1300010827634
78	399282 8436 1312 175308 1.307223960668 32.507217866582 313 3 3 939 2817
77	407718 8452 1250 175245 1.297801960667 32.497808866581 313 3 3 939 2817
76	416170 438 5171 172481 2 32 31 0 0 0 0
75	416608 625 5171 172481 2 32 31 0.023297 0.02625 0.810797 0.021214625209
74	417233 438 5171 172481 2 32 31 3 3 93 279
117	417671 10427 237 175345 1.11 32.51 315 -1.5284774898913 8.5821549781428 181.71551671176 2011.0173995532
116	428098 10493 237 175345 1.11 32.51 315 -1.4661745254248 2.4999999999999 46.261324549918 446.28025181424
115	438591 6957 237 175345 1.11 32.51 315 36.55 36.55 11513.25 420809.2875
114	445548 10071 237 175345 1.11 32.51 315 53.383172225952 933.55540781671 155191.46511842 96765683.382864
113	455619 10075 237 175345 1.11 32.51 315 26.501250312681 32.289503769135 8831.0992645474 247910.68787436
111	465694 10945 237 175345 1.11 32.51 315 -0.020206168129505 0.27181810185587 6.4279379768719 1.8077963386726
110	476639 10074 237 175345 1.11 32.51 315 4.9769313209342 5.6755277223029 1585.6532887277 7985.3640576183
112	486713 5697 237 175345 1.11 32.51 315 5 5 1575 7875
124	492410 12805 1178 175173 1.297388780543 32.497382704034 313 0.099998465387 0.100011482451 31.299992403825 3.1299984861495
123	505215 12815 1262 175257 1.297802020709 32.497808912472 313 0.099998463103 0.100011482566 31.300005372097 3.1300010799332
122	518030 8762 1178 175173 1.297388780543 32.497382704034 313 5 5 1565 7825
121	526792 8775 1262 175257 1.297802020709 32.497808912472 313 5 5 1565 7825
120	535567 469 5173 172483 2 32 31 0 0 0 0
119	536036 656 5173 172483 2 32 31 0.023297 0.02625 0.810797 0.021214625209
118	536692 469 5173 172483 2 32 31 5 5 155 775
139	537161 10446 238 175346 1.11 32.51 315 -1.4999727096697 5.0582758438395 93.26372346471 924.35094898604
138	547607 10493 238 175346 1.11 32.51 315 -1.4605505450778 2.4999999999999 42.936091899622 433.66156336199
137	558100 6957 238 175346 1.11 32.51 315 36.55 36.55 11513.25 420809.2875
136	565057 10073 238 175346 1.11 32.51 315 44.383172225952 923.79640876201 152345.03835589 93978845.085709
135	575130 10078 238 175346 1.11 32.51 315 26.507548837726 31.956624453134 8823.3933552822 247456.18867422
133	585208 10925 238 175346 1.11 32.51 315 -0.021561675113631 0.3078793160011 7.2432960197307 2.1644299191128
132	596133 10055 238 175346 1.11 32.51 315 4.9964405556398 5.7523414683815 1586.2726443436 7992.3112156576
134	606188 5697 238 175346 1.11 32.51 315 6 6 1890 11340
146	611885 12796 970 174965 1.248712630439 32.448706541533 313 0.099998464786 0.100011482458 31.299992391428 3.1299984836701
145	624681 12793 1268 175263 1.29780205073 32.497808945003 313 0.099998463215 0.100011482569 31.300005374607 3.1300010804352
144	637474 8759 970 174965 1.248712630439 32.448706541533 313 6 6 1878 11268
143	646233 8764 1268 175263 1.29780205073 32.497808945003 313 6 6 1878 11268
142	654997 469 5174 172484 2 32 31 0 0 0 0
141	655466 656 5174 172484 2 32 31 0.023297 0.02625 0.810797 0.021214625209
140	656122 469 5174 172484 2 32 31 6 6 186 1116
161	656591 10426 239 175347 1.11 32.51 315 -1.5093935057707 3.3095694929411 54.146680745215 645.40043993613
160	667017 10497 239 175347 1.11 32.51 315 -1.4619692869356 2.4999999999999 38.00340083171 417.27696293197
159	677514 6957 239 175347 1.11 32.51 315 36.55 36.55 11513.25 420809.2875
158	684471 10079 239 175347 1.11 32.51 315 35.383171749115 913.97359630988 149499.07972993 91243791.105307
157	694550 10074 239 175347 1.11 32.51 315 26.505347780597 31.488873561861 8814.9971509441 246964.8245742
155	704624 10968 239 175347 1.11 32.51 315 -0.021825726720223 0.44276058122563 7.9668434190584 2.8305810277904
154	715592 10065 239 175347 1.11 32.51 315 4.991551779114 5.813457434304 1585.7907018792 7987.7109599892
156	725657 5697 239 175347 1.11 32.51 315 7 7 2205 15435
168	731354 12794 1040 175035 1.26389366046 32.463887574221 313 0.09999846493 0.100011482459 31.299992394095 3.1299984842035
167	744148 12792 1274 175269 1.29780208075 32.497808977737 313 0.099998463362 0.100011482568 31.300005377321 3.130001080978
166	756940 8757 1040 175035 1.26389366046 32.463887574221 313 7 7 2191 15337
165	765697 8759 1274 175269 1.29780208075 32.497808977737 313 7 7 2191 15337
164	774456 469 5175 172485 2 32 31 0 0 0 0
163	774925 656 5175 172485 2 32 31 0.023297 0.02625 0.810797 0.021214625209
162	775581 469 5175 172485 2 32 31 7 7 217 1519
88	776050 9739 236 175416 1.11 32.52 316 0 5.0167039462913 1531.6647785048 7585.761422769
89	785789 10737 236 175416 1.11 32.52 316 -3.6461824256255 0.015827593206613 -54.943639709807 143.47910862934
90	796526 5400 236 175416 1.11 32.52 316 4 4 1264 5056
91	801926 9780 236 175416 1.11 32.52 316 26.499492139601 32.611321870991 8870.6303341596 249384.66992144
92	811706 9788 236 175416 1.11 32.52 316 62.383170318603 943.56323511976 158980.82003722 100492564.68657
93	821494 6664 236 175416 1.11 32.52 316 36.55 36.55 11549.8 422145.19
94	828158 10198 236 175416 1.11 32.52 316 -1.4671620257765 2.4999999999999 51.68097642754 459.92166191287
95	838356 10141 236 175416 1.11 32.52 316 -1.5015734354391 15.627874080197 365.05646822908 6006.6044185065
96	848497 438 5172 172482 2 32 31 4 4 124 496
97	848935 625 5172 172482 2 32 31 0.023297 0.02625 0.810797 0.021214625209
98	849560 438 5172 172482 2 32 31 0 0 0 0
99	849998 8452 1256 175251 1.297801990688 32.497808880198 313 4 4 1252 5008
100	858450 8769 902 174891 1.235039570397 32.435046476844 313 4 4 1252 5008
101	867219 12800 1256 175251 1.297801990688 32.497808880198 313 0.099998463004 0.100011482566 31.300005369844 3.1300010794826
102	880019 12798 902 174891 1.235039570397 32.435046476844 313 0.099998466051 0.100011482572 31.300005386781 3.1300010828699
