file 1680868 1512143356                                         
version 2
run SinusoidalAccInjectionAttack-90-20171201-16:48:44-109632
attr CACCSpacing 20
attr attackAcc -10
attr attackPos 7
attr attackSpeed 150
attr attackStart 30
attr attacker 4
attr beaconInterval 0.1
attr configname SinusoidalAccInjectionAttack
attr controller 2
attr datetime 20171201-16:48:44
attr experiment SinusoidalAccInjectionAttack
attr fakeAcc "(4 == 4)"
attr fakePos "(4 == 2)"
attr fakeSpeed "(4 == 3)"
attr inifile omnetpp_90.ini
attr iterationvars "$attacker=4, $attackSpeed=150, $attackPos=7, $attackAcc=-10, $leaderSpeed=100, $controller=2, $CACCSpacing=20, $sController=\"PLOEG\", $attackStart=30, $0=2, $1=0.5, $nCars=8, $platoonSize=8, $nLanes=1, $beaconInterval=0.1, $priority=2, $packetSize=200, $ploegH=0.5, $leaderHeadway=1.2, $fakeSpeed=(4 == 3), $fakeAcc=(4 == 4), $fakePos=(4 == 2)"
attr iterationvarsf attacker=4,attackSpeed=150,attackPos=7,attackAcc=-10,leaderSpeed=100,controller=2,CACCSpacing=20,sController=PLOEG,attackStart=30,2,0.5,nCars=8,platoonSize=8,nLanes=1,beaconInterval=0.1,priority=2,packetSize=200,ploegH=0.5,leaderHeadway=1.2,fakeSpeed=(4_==_3),fakeAcc=(4_==_4),fakePos=(4_==_2)-
attr leaderHeadway 1.2
attr leaderSpeed 100
attr measurement "$attacker=4, $attackSpeed=150, $attackPos=7, $attackAcc=-10, $leaderSpeed=100, $controller=2, $CACCSpacing=20, $sController=\"PLOEG\", $attackStart=30, $0=2, $1=0.5, $nCars=8, $platoonSize=8, $nLanes=1, $beaconInterval=0.1, $priority=2, $packetSize=200, $ploegH=0.5, $leaderHeadway=1.2, $fakeSpeed=(4 == 3), $fakeAcc=(4 == 4), $fakePos=(4 == 2)"
attr nCars 8
attr nLanes 1
attr network scenario
attr packetSize 200
attr platoonSize 8
attr ploegH 0.5
attr priority 2
attr processid 109632
attr repetition 0
attr replication #0
attr resultdir results
attr runnumber 90
attr sController "\"PLOEG\""
attr seedset 0
param **.coreDebug false
param **.debug false
param **.headway 0.1s
param **.numberOfCars 8
param **.numberOfCarsPerPlatoon 8
param **.numberOfLanes 1
param **.numericController 2
param **.traffic.nCars 8
param **.traffic.nLanes 1
param **.traffic.platoonInsertDistance 2m
param **.traffic.platoonInsertHeadway 0.5s
param **.traffic.platoonInsertSpeed 100kmph
param **.traffic.platoonInsertTime "1 s"
param **.traffic.platoonLeaderHeadway 1.2s
param **.traffic.platoonSize 8
param **.traffic.platooningVType "\"vtypeauto\""
param **.traffic_type "\"PlatoonsTrafficManager\""
param *.**.nic.mac1609_4.bitrate 6Mbps
param *.**.nic.mac1609_4.txPower 100mW
param *.**.nic.mac1609_4.useServiceChannel false
param *.**.nic.phy80211p.analogueModels "xmldoc(\"config.xml\")"
param *.**.nic.phy80211p.decider "xmldoc(\"config.xml\")"
param *.**.nic.phy80211p.maxTXPower 100mW
param *.**.nic.phy80211p.sensitivity -94dBm
param *.**.nic.phy80211p.thermalNoise -95dBm
param *.**.nic.phy80211p.usePropagationDelay true
param *.**.nic.phy80211p.useThermalNoise true
param *.annotations.draw false
param *.connectionManager.alpha 2.0
param *.connectionManager.carrierFrequency "5.890e9 Hz"
param *.connectionManager.pMax 100mW
param *.connectionManager.sat -94dBm
param *.connectionManager.sendDirect true
param *.manager.autoShutdown true
param *.manager.commandLine "\"sumo --remote-port $port --seed $seed --configuration-file $configFile\""
param *.manager.configFile "\"./sumocfg/freeway.sumo.cfg\""
param *.manager.host "\"localhost\""
param *.manager.margin 25
param *.manager.moduleDisplayString "\"\""
param *.manager.moduleName "\"node\""
param *.manager.moduleType "\"Car\""
param *.manager.updateInterval 0.01s
param *.node[*].appl.attackStart 30s
param *.node[*].appl.attackerType 4
param *.node[*].appl.simulationDuration "60 s"
param *.node[*].appl_type "\"SimplePlatooningApp\""
param *.node[*].helper.nCars 8
param *.node[*].helper.nLanes 1
param *.node[*].helper.platoonSize 8
param *.node[*].helper_type "\"PositionHelper\""
param *.node[*].mobility.x 0
param *.node[*].mobility.y 0
param *.node[*].mobility.z 1.895
param *.node[*].prot.attackStart 30s
param *.node[*].prot.attackerType 4
param *.node[*].prot.attackingNode 3
param *.node[*].prot.beaconingInterval 0.1s
param *.node[*].prot.fakeAcc "(4 == 4)"
param *.node[*].prot.fakePos "(4 == 2)"
param *.node[*].prot.fakeSpeed "(4 == 3)"
param *.node[*].prot.maliciousAcc "-10 mpss"
param *.node[*].prot.maliciousSpeed 150kmph
param *.node[*].prot.packetSize 200
param *.node[*].prot.priority 2
param *.node[*].prot.shiftX "7 m"
param *.node[*].prot.useControllerAcceleration true
param *.node[*].protocol_type "\"SimplePlatooningBeaconing\""
param *.node[*].scenario.accHeadway 0.1s
param *.node[*].scenario.caccC1 0.5
param *.node[*].scenario.caccOmegaN "0.2 Hz"
param *.node[*].scenario.caccSpacing 20m
param *.node[*].scenario.caccXi 1
param *.node[*].scenario.controller "\"PLOEG\""
param *.node[*].scenario.engineTau "0.5 s"
param *.node[*].scenario.leaderHeadway 1.2s
param *.node[*].scenario.leaderSpeed 100kmph
param *.node[*].scenario.ploegH 0.5s
param *.node[*].scenario.ploegKd 0.7
param *.node[*].scenario.ploegKp 0.2
param *.node[*].scenario.useRealisticEngine false
param *.node[*].scenario_type "\"SinusoidalScenario\""
param *.node[*].unicast.packetLossRate 0
param *.obstacles.debug false
param *.playgroundSizeX 65000m
param *.playgroundSizeY 25000m
param *.playgroundSizeZ 50m
param *.world.use2D false
param *.world.useTorus false

vector 0  scenario.node[0].appl  distance  ETV
vector 1  scenario.node[0].appl  relativeSpeed  ETV
vector 2  scenario.node[0].appl  nodeId  ETV
vector 6  scenario.node[0].appl  acceleration  ETV
vector 7  scenario.node[0].appl  controllerAcceleration  ETV
vector 3  scenario.node[0].appl  speed  ETV
vector 4  scenario.node[0].appl  posx  ETV
vector 5  scenario.node[0].appl  posy  ETV
vector 22  scenario.node[1].appl  distance  ETV
vector 23  scenario.node[1].appl  relativeSpeed  ETV
vector 24  scenario.node[1].appl  nodeId  ETV
vector 28  scenario.node[1].appl  acceleration  ETV
vector 29  scenario.node[1].appl  controllerAcceleration  ETV
vector 25  scenario.node[1].appl  speed  ETV
vector 26  scenario.node[1].appl  posx  ETV
vector 27  scenario.node[1].appl  posy  ETV
vector 44  scenario.node[2].appl  distance  ETV
vector 45  scenario.node[2].appl  relativeSpeed  ETV
vector 46  scenario.node[2].appl  nodeId  ETV
vector 50  scenario.node[2].appl  acceleration  ETV
vector 51  scenario.node[2].appl  controllerAcceleration  ETV
vector 47  scenario.node[2].appl  speed  ETV
vector 48  scenario.node[2].appl  posx  ETV
vector 49  scenario.node[2].appl  posy  ETV
vector 66  scenario.node[3].appl  distance  ETV
vector 67  scenario.node[3].appl  relativeSpeed  ETV
vector 68  scenario.node[3].appl  nodeId  ETV
vector 72  scenario.node[3].appl  acceleration  ETV
vector 73  scenario.node[3].appl  controllerAcceleration  ETV
vector 69  scenario.node[3].appl  speed  ETV
vector 70  scenario.node[3].appl  posx  ETV
vector 71  scenario.node[3].appl  posy  ETV
vector 88  scenario.node[4].appl  distance  ETV
vector 89  scenario.node[4].appl  relativeSpeed  ETV
vector 90  scenario.node[4].appl  nodeId  ETV
vector 94  scenario.node[4].appl  acceleration  ETV
vector 95  scenario.node[4].appl  controllerAcceleration  ETV
vector 91  scenario.node[4].appl  speed  ETV
vector 92  scenario.node[4].appl  posx  ETV
vector 93  scenario.node[4].appl  posy  ETV
vector 110  scenario.node[5].appl  distance  ETV
vector 111  scenario.node[5].appl  relativeSpeed  ETV
vector 112  scenario.node[5].appl  nodeId  ETV
vector 116  scenario.node[5].appl  acceleration  ETV
vector 117  scenario.node[5].appl  controllerAcceleration  ETV
vector 113  scenario.node[5].appl  speed  ETV
vector 114  scenario.node[5].appl  posx  ETV
vector 115  scenario.node[5].appl  posy  ETV
vector 132  scenario.node[6].appl  distance  ETV
vector 133  scenario.node[6].appl  relativeSpeed  ETV
vector 134  scenario.node[6].appl  nodeId  ETV
vector 138  scenario.node[6].appl  acceleration  ETV
vector 139  scenario.node[6].appl  controllerAcceleration  ETV
vector 135  scenario.node[6].appl  speed  ETV
vector 136  scenario.node[6].appl  posx  ETV
vector 137  scenario.node[6].appl  posy  ETV
vector 154  scenario.node[7].appl  distance  ETV
vector 155  scenario.node[7].appl  relativeSpeed  ETV
vector 156  scenario.node[7].appl  nodeId  ETV
vector 160  scenario.node[7].appl  acceleration  ETV
vector 161  scenario.node[7].appl  controllerAcceleration  ETV
vector 157  scenario.node[7].appl  speed  ETV
vector 158  scenario.node[7].appl  posx  ETV
vector 159  scenario.node[7].appl  posy  ETV
vector 80  scenario.node[3].prot  frontDelay  ETV
vector 78  scenario.node[3].prot  frontDelayId  ETV
vector 58  scenario.node[2].prot  frontDelay  ETV
vector 56  scenario.node[2].prot  frontDelayId  ETV
vector 168  scenario.node[7].prot  frontDelay  ETV
vector 166  scenario.node[7].prot  frontDelayId  ETV
vector 35  scenario.node[1].prot  leaderDelay  ETV
vector 33  scenario.node[1].prot  leaderDelayId  ETV
vector 36  scenario.node[1].prot  frontDelay  ETV
vector 34  scenario.node[1].prot  frontDelayId  ETV
vector 57  scenario.node[2].prot  leaderDelay  ETV
vector 55  scenario.node[2].prot  leaderDelayId  ETV
vector 79  scenario.node[3].prot  leaderDelay  ETV
vector 77  scenario.node[3].prot  leaderDelayId  ETV
vector 101  scenario.node[4].prot  leaderDelay  ETV
vector 99  scenario.node[4].prot  leaderDelayId  ETV
vector 123  scenario.node[5].prot  leaderDelay  ETV
vector 121  scenario.node[5].prot  leaderDelayId  ETV
vector 145  scenario.node[6].prot  leaderDelay  ETV
vector 143  scenario.node[6].prot  leaderDelayId  ETV
vector 167  scenario.node[7].prot  leaderDelay  ETV
vector 165  scenario.node[7].prot  leaderDelayId  ETV
vector 124  scenario.node[5].prot  frontDelay  ETV
vector 122  scenario.node[5].prot  frontDelayId  ETV
vector 102  scenario.node[4].prot  frontDelay  ETV
vector 100  scenario.node[4].prot  frontDelayId  ETV
vector 146  scenario.node[6].prot  frontDelay  ETV
vector 144  scenario.node[6].prot  frontDelayId  ETV
vector 8  scenario.node[0].prot  nodeId  ETV
vector 9  scenario.node[0].prot  busyTime  ETV
vector 10  scenario.node[0].prot  collisions  ETV
vector 30  scenario.node[1].prot  nodeId  ETV
vector 31  scenario.node[1].prot  busyTime  ETV
vector 32  scenario.node[1].prot  collisions  ETV
vector 52  scenario.node[2].prot  nodeId  ETV
vector 53  scenario.node[2].prot  busyTime  ETV
vector 54  scenario.node[2].prot  collisions  ETV
vector 74  scenario.node[3].prot  nodeId  ETV
vector 75  scenario.node[3].prot  busyTime  ETV
vector 76  scenario.node[3].prot  collisions  ETV
vector 96  scenario.node[4].prot  nodeId  ETV
vector 97  scenario.node[4].prot  busyTime  ETV
vector 98  scenario.node[4].prot  collisions  ETV
vector 118  scenario.node[5].prot  nodeId  ETV
vector 119  scenario.node[5].prot  busyTime  ETV
vector 120  scenario.node[5].prot  collisions  ETV
vector 140  scenario.node[6].prot  nodeId  ETV
vector 141  scenario.node[6].prot  busyTime  ETV
vector 142  scenario.node[6].prot  collisions  ETV
vector 162  scenario.node[7].prot  nodeId  ETV
vector 163  scenario.node[7].prot  busyTime  ETV
vector 164  scenario.node[7].prot  collisions  ETV
7	11099 13860 232 328174 1.11 59.91 589 -1.5 1.5 -14.445974034379 993.24092368185
6	24959 18594 232 328174 1.11 59.91 589 -1.4722746794938 1.4513434175793 -12.50726914995 675.29835222675
5	43553 12081 232 328174 1.11 59.91 589 36.55 36.55 21527.95 786846.5725
4	55634 17915 232 328174 1.11 59.91 589 175.4398567197 1813.0893222621 586441.61229964 715684322.28276
3	73549 17905 232 328174 1.11 59.91 589 26.487965859734 29.742492528104 16403.83880962 457295.15275867
1	91454 9725 232 328174 1.11 59.91 589 0 0 0 0
0	101179 10314 232 328174 1.11 59.91 589 -1 -1 -589 589
2	111493 9725 232 328174 1.11 59.91 589 0 0 0 0
10	121218 858 5102 328596 2 60 59 0 0 0 0
9	122076 1154 5102 328596 2 60 59 0.022969 0.02625 1.545469 0.040493199961
8	123230 799 5102 328596 2 60 59 0 0 0 0
29	124029 19143 233 328175 1.11 59.91 589 -1.5293265431491 1.5147272682206 -12.72052860001 737.2436013367
28	143172 19247 233 328175 1.11 59.91 589 -1.4370700289774 1.3689211213311 -6.6756842009081 518.61682112401
27	162419 12670 233 328175 1.11 59.91 589 36.55 36.55 21527.95 786846.5725
26	175089 18502 233 328175 1.11 59.91 589 155.55097122192 1793.6007947518 574703.61226623 692563834.81139
25	193591 18485 233 328175 1.11 59.91 589 26.672961971172 29.575007015286 16408.051525775 457434.51986789
23	212076 19522 233 328175 1.11 59.91 589 -0.72639944061039 0.7085930712855 -4.0876434637999 143.22737674074
22	231598 18487 233 328175 1.11 59.91 589 15.294734303973 16.812626420666 9382.0842877238 149544.33409898
24	250085 10314 233 328175 1.11 59.91 589 1 1 589 589
36	260399 23696 1032 328418 1.254912720029 59.95492799765 588 0.099908857581 0.100091973439 58.800028135202 5.8800066498561
35	284095 23696 1032 328418 1.254912720029 59.95492799765 588 0.099908857581 0.100091973439 58.800028135202 5.8800066498561
34	307791 16124 1032 328418 1.254912720029 59.95492799765 588 1 1 588 588
33	323915 16124 1032 328418 1.254912720029 59.95492799765 588 1 1 588 588
32	340039 858 5103 328597 2 60 59 0 0 0 0
31	340897 1213 5103 328597 2 60 59 0.022969 0.02625 1.545469 0.040493199961
30	342110 858 5103 328597 2 60 59 1 1 59 59
51	342968 19234 234 328176 1.11 59.91 589 -1.4940421391086 1.4261596489714 -6.2816858713429 563.05781804556
50	362202 19334 234 328176 1.11 59.91 589 -1.3487060388144 1.2317679963978 -0.14504424700412 396.33182593954
49	381536 12670 234 328176 1.11 59.91 589 36.55 36.55 21527.95 786846.5725
48	394206 18496 234 328176 1.11 59.91 589 135.66208572388 1773.7615994777 562965.02380688 669907908.17381
47	412702 18480 234 328176 1.11 59.91 589 26.816781288213 29.447869572497 16408.777034772 457402.60237373
45	431182 19538 234 328176 1.11 59.91 589 -0.6849596593368 0.63995180998676 -0.65875215489675 108.34295833808
44	450720 18508 234 328176 1.11 59.91 589 15.375821184681 16.739861272809 9382.6029695329 149539.19407557
46	469228 10314 234 328176 1.11 59.91 589 2 2 1178 2356
58	479542 23700 900 328286 1.229658990265 59.929660931446 588 0.099987628743 0.10001285872 58.800001798762 5.8800003630689
57	503242 23671 1038 328424 1.254912786371 59.95492806374 588 0.099908857581 0.100091973639 58.80002813495 5.8800066498057
56	526913 16120 900 328286 1.229658990265 59.929660931446 588 2 2 1176 2352
55	543033 16104 1038 328424 1.254912786371 59.95492806374 588 2 2 1176 2352
54	559137 858 5104 328598 2 60 59 0 0 0 0
53	559995 1213 5104 328598 2 60 59 0.022969 0.02625 1.545469 0.040493199961
52	561208 858 5104 328598 2 60 59 2 2 118 236
73	562066 19339 235 328177 1.11 59.91 589 -1.4034209316699 1.2866785491571 0.54536162262617 432.25171284133
72	581405 19441 235 328177 1.11 59.91 589 -1.2415340246246 1.0867442343201 4.8368866754011 305.47922721678
71	600846 12670 235 328177 1.11 59.91 589 36.55 36.55 21527.95 786846.5725
70	613516 18486 235 328177 1.11 59.91 589 115.77320022583 1753.6477142327 551227.23202064 647722024.05125
69	632002 18475 235 328177 1.11 59.91 589 26.931579451198 29.347524791249 16406.698587632 457231.90554932
67	650477 19552 235 328177 1.11 59.91 589 -0.63288698544969 0.56782454520026 2.079897582538 83.382835672697
66	670029 18512 235 328177 1.11 59.91 589 15.437371364843 16.686023283658 9381.7502172993 149496.51538868
68	688541 10314 235 328177 1.11 59.91 589 3 3 1767 5301
80	698855 23706 832 328218 1.213905923923 59.913907866208 588 0.099987517945 0.100012912716 58.800001799866 5.8800003632954
79	722561 23691 1044 328430 1.254912852714 59.954928130766 588 0.099908857581 0.100091973753 58.800028135633 5.8800066499423
78	746252 16127 832 328218 1.213905923923 59.913907866208 588 3 3 1764 5292
77	762379 16106 1044 328430 1.254912852714 59.954928130766 588 3 3 1764 5292
76	778485 858 5105 328599 2 60 59 0 0 0 0
75	779343 1213 5105 328599 2 60 59 0.022968 0.02625 1.545468 0.040493154024
74	780556 858 5105 328599 2 60 59 3 3 177 531
95	781414 18164 236 328178 1.11 59.91 589 -7.2026836431644 1.5 3.6458946870096 1163.4513431907
94	799578 19339 236 328178 1.11 59.91 589 -6.1366162553504 1.4999999839507 0.54304448793587 966.52560566496
93	818917 12670 236 328178 1.11 59.91 589 36.55 36.55 21527.95 786846.5725
92	831587 18497 236 328178 1.11 59.91 589 95.884307098389 1682.8395472405 525049.30265181 587597100.93097
91	850084 18488 236 328178 1.11 59.91 589 16.238053386984 31.984892966554 15897.344676423 435231.46820016
89	868572 19344 236 328178 1.11 59.91 589 -4.4423146059475 12.087519271643 509.30554234174 6594.2325669296
88	887916 18500 236 328178 1.11 59.91 589 15.490444452818 85.486665446786 23811.742290601 1399487.7364069
90	906416 10314 236 328178 1.11 59.91 589 4 4 2356 9424
102	916730 24287 1246 328653 1.303563449793 60.003553234891 588 0.099987456039 0.100012876967 58.799989642679 5.8799979320069
101	941017 24276 1050 328436 1.254912919056 59.954928367016 588 0.099908857581 0.10009197269 58.800028305541 5.8800066839241
100	965293 16705 1246 328653 1.303563449793 60.003553234891 588 4 4 2352 9408
99	981998 16107 1050 328436 1.254912919056 59.954928367016 588 4 4 2352 9408
98	998105 858 5106 328600 2 60 59 0 0 0 0
97	998963 1213 5106 328600 2 60 59 0.022969 0.02625 1.545469 0.040493199961
96	1000176 858 5106 328600 2 60 59 4 4 236 944
117	1001034 19965 237 328179 1.11 59.91 589 -6.3202591521845 1.5781294217392 0.25298717357803 1018.2939748901
116	1020999 19955 237 328179 1.11 59.91 589 -5.5779633861022 1.5428070510595 -2.0211328300228 869.25964608523
115	1040954 13259 237 328179 1.11 59.91 589 36.55 36.55 21527.95 786846.5725
114	1054213 19086 237 328179 1.11 59.91 589 75.995417785645 1663.0421077122 513565.95499449 567385433.99813
113	1073299 19090 237 328179 1.11 59.91 589 16.416565127207 31.908694951348 15898.170561636 435149.03394158
111	1092389 20127 237 328179 1.11 59.91 589 -2.8149757032952 0.75493272121656 -0.8313156579542 213.26277648457
110	1112516 19080 237 328179 1.11 59.91 589 10.220698032637 17.882420597763 9127.3641750278 142901.17570388
112	1131596 10903 237 328179 1.11 59.91 589 5 5 2945 14725
124	1142499 24309 1172 328552 1.265749383451 59.965751828396 588 0.099987708743 0.100012881996 58.800002302526 5.8800004638207
123	1166808 24292 1056 328442 1.254912985398 59.954928433087 588 0.099908857581 0.100091972464 58.80002830527 5.8800066838699
122	1191100 16706 1172 328552 1.265749383451 59.965751828396 588 5 5 2940 14700
121	1207806 16702 1056 328442 1.254912985398 59.954928433087 588 5 5 2940 14700
120	1224508 917 5107 328601 2 60 59 0 0 0 0
119	1225425 1272 5107 328601 2 60 59 0.022968 0.02625 1.545468 0.040493154024
118	1226697 917 5107 328601 2 60 59 5 5 295 1475
139	1227614 19955 238 328180 1.11 59.91 589 -5.7444245739464 1.6319301575025 -2.3485486698469 914.4541930468
138	1247569 19986 238 328180 1.11 59.91 589 -5.1520843464633 1.5862377311844 -3.2976987303289 793.72274867201
137	1267555 13259 238 328180 1.11 59.91 589 36.55 36.55 21527.95 786846.5725
136	1280814 19087 238 328180 1.11 59.91 589 56.106530380249 1643.3213468046 502082.24616999 547625997.63875
135	1299901 19083 238 328180 1.11 59.91 589 16.553050780161 31.833017959639 15899.809138301 435123.24458382
133	1318984 20128 238 328180 1.11 59.91 589 -2.5915640581761 0.77219959887585 -1.6183653366415 193.66186952632
132	1339112 19102 238 328180 1.11 59.91 589 10.294322173111 17.84652243039 9127.7415960295 142887.8408339
134	1358214 10903 238 328180 1.11 59.91 589 6 6 3534 21204
146	1369117 24302 1312 328701 1.305159582477 60.005162366827 588 0.099987661629 0.100012878434 58.800002641931 5.8800005317034
145	1393419 24266 1062 328448 1.25491305174 59.954928498885 588 0.099908857581 0.100091972301 58.800028304726 5.880006683761
144	1417685 16706 1312 328701 1.305159582477 60.005162366827 588 6 6 3528 21168
143	1434391 16691 1062 328448 1.25491305174 59.954928498885 588 6 6 3528 21168
142	1451082 917 5108 328602 2 60 59 0 0 0 0
141	1451999 1272 5108 328602 2 60 59 0.022969 0.02625 1.545469 0.040493199961
140	1453271 917 5108 328602 2 60 59 6 6 354 2124
161	1454188 20005 239 328181 1.11 59.91 589 -5.299706594896 1.6719014835037 -3.513682821319 831.58957107164
160	1474193 20011 239 328181 1.11 59.91 589 -4.8098265231218 1.621051319637 -3.1272234355193 733.12993469696
159	1494204 13259 239 328181 1.11 59.91 589 36.55 36.55 21527.95 786846.5725
158	1507463 19076 239 328181 1.11 59.91 589 36.217641067505 1623.6000492256 490597.64424567 528317680.95771
157	1526539 19092 239 328181 1.11 59.91 589 16.669495920352 31.758895165407 15901.493033641 435109.7180812
155	1545631 20177 239 328181 1.11 59.91 589 -2.4116270820041 0.78553641581842 -1.6509183526401 177.67842670019
154	1565808 19083 239 328181 1.11 59.91 589 10.363880950413 17.80996256784 9128.6356022328 142889.14866571
156	1584891 10903 239 328181 1.11 59.91 589 7 7 4123 28861
168	1595794 24291 975 328355 1.254434321976 59.95443643234 588 0.099987577571 0.100012875583 58.800001967945 5.8800003969073
167	1620085 24290 1068 328454 1.254913118082 59.954928564666 588 0.099908857581 0.100091972215 58.800028304165 5.8800066836488
166	1644375 16682 975 328355 1.254434321976 59.95443643234 588 7 7 4116 28812
165	1661057 16705 1068 328454 1.254913118082 59.954928564666 588 7 7 4116 28812
164	1677762 917 5109 328603 2 60 59 0 0 0 0
163	1678679 1272 5109 328603 2 60 59 0.022969 0.02625 1.545469 0.040493199961
162	1679951 917 5109 328603 2 60 59 7 7 413 2891
