file 1679903 1512143346                                         
version 2
run SinusoidalAccInjectionAttack-85-20171201-16:48:37-21300
attr CACCSpacing 20
attr attackAcc -10
attr attackPos 7
attr attackSpeed 150
attr attackStart 30
attr attacker 4
attr beaconInterval 0.1
attr configname SinusoidalAccInjectionAttack
attr controller 1
attr datetime 20171201-16:48:37
attr experiment SinusoidalAccInjectionAttack
attr fakeAcc "(4 == 4)"
attr fakePos "(4 == 2)"
attr fakeSpeed "(4 == 3)"
attr inifile omnetpp_85.ini
attr iterationvars "$attacker=4, $attackSpeed=150, $attackPos=7, $attackAcc=-10, $leaderSpeed=100, $controller=1, $CACCSpacing=20, $sController=\"CACC\", $attackStart=30, $0=20, $1=0, $nCars=8, $platoonSize=8, $nLanes=1, $beaconInterval=0.1, $priority=2, $packetSize=200, $ploegH=0.5, $leaderHeadway=1.2, $fakeSpeed=(4 == 3), $fakeAcc=(4 == 4), $fakePos=(4 == 2)"
attr iterationvarsf attacker=4,attackSpeed=150,attackPos=7,attackAcc=-10,leaderSpeed=100,controller=1,CACCSpacing=20,sController=CACC,attackStart=30,20,0,nCars=8,platoonSize=8,nLanes=1,beaconInterval=0.1,priority=2,packetSize=200,ploegH=0.5,leaderHeadway=1.2,fakeSpeed=(4_==_3),fakeAcc=(4_==_4),fakePos=(4_==_2)-
attr leaderHeadway 1.2
attr leaderSpeed 100
attr measurement "$attacker=4, $attackSpeed=150, $attackPos=7, $attackAcc=-10, $leaderSpeed=100, $controller=1, $CACCSpacing=20, $sController=\"CACC\", $attackStart=30, $0=20, $1=0, $nCars=8, $platoonSize=8, $nLanes=1, $beaconInterval=0.1, $priority=2, $packetSize=200, $ploegH=0.5, $leaderHeadway=1.2, $fakeSpeed=(4 == 3), $fakeAcc=(4 == 4), $fakePos=(4 == 2)"
attr nCars 8
attr nLanes 1
attr network scenario
attr packetSize 200
attr platoonSize 8
attr ploegH 0.5
attr priority 2
attr processid 21300
attr repetition 0
attr replication #0
attr resultdir results
attr runnumber 85
attr sController "\"CACC\""
attr seedset 0
param **.coreDebug false
param **.debug false
param **.headway 0.1s
param **.numberOfCars 8
param **.numberOfCarsPerPlatoon 8
param **.numberOfLanes 1
param **.numericController 1
param **.traffic.nCars 8
param **.traffic.nLanes 1
param **.traffic.platoonInsertDistance 20m
param **.traffic.platoonInsertHeadway 0s
param **.traffic.platoonInsertSpeed 100kmph
param **.traffic.platoonInsertTime "1 s"
param **.traffic.platoonLeaderHeadway 1.2s
param **.traffic.platoonSize 8
param **.traffic.platooningVType "\"vtypeauto\""
param **.traffic_type "\"PlatoonsTrafficManager\""
param *.**.nic.mac1609_4.bitrate 6Mbps
param *.**.nic.mac1609_4.txPower 100mW
param *.**.nic.mac1609_4.useServiceChannel false
param *.**.nic.phy80211p.analogueModels "xmldoc(\"config.xml\")"
param *.**.nic.phy80211p.decider "xmldoc(\"config.xml\")"
param *.**.nic.phy80211p.maxTXPower 100mW
param *.**.nic.phy80211p.sensitivity -94dBm
param *.**.nic.phy80211p.thermalNoise -95dBm
param *.**.nic.phy80211p.usePropagationDelay true
param *.**.nic.phy80211p.useThermalNoise true
param *.annotations.draw false
param *.connectionManager.alpha 2.0
param *.connectionManager.carrierFrequency "5.890e9 Hz"
param *.connectionManager.pMax 100mW
param *.connectionManager.sat -94dBm
param *.connectionManager.sendDirect true
param *.manager.autoShutdown true
param *.manager.commandLine "\"sumo --remote-port $port --seed $seed --configuration-file $configFile\""
param *.manager.configFile "\"./sumocfg/freeway.sumo.cfg\""
param *.manager.host "\"localhost\""
param *.manager.margin 25
param *.manager.moduleDisplayString "\"\""
param *.manager.moduleName "\"node\""
param *.manager.moduleType "\"Car\""
param *.manager.updateInterval 0.01s
param *.node[*].appl.attackStart 30s
param *.node[*].appl.attackerType 4
param *.node[*].appl.simulationDuration "60 s"
param *.node[*].appl_type "\"SimplePlatooningApp\""
param *.node[*].helper.nCars 8
param *.node[*].helper.nLanes 1
param *.node[*].helper.platoonSize 8
param *.node[*].helper_type "\"PositionHelper\""
param *.node[*].mobility.x 0
param *.node[*].mobility.y 0
param *.node[*].mobility.z 1.895
param *.node[*].prot.attackStart 30s
param *.node[*].prot.attackerType 4
param *.node[*].prot.attackingNode 3
param *.node[*].prot.beaconingInterval 0.1s
param *.node[*].prot.fakeAcc "(4 == 4)"
param *.node[*].prot.fakePos "(4 == 2)"
param *.node[*].prot.fakeSpeed "(4 == 3)"
param *.node[*].prot.maliciousAcc "-10 mpss"
param *.node[*].prot.maliciousSpeed 150kmph
param *.node[*].prot.packetSize 200
param *.node[*].prot.priority 2
param *.node[*].prot.shiftX "7 m"
param *.node[*].prot.useControllerAcceleration true
param *.node[*].protocol_type "\"SimplePlatooningBeaconing\""
param *.node[*].scenario.accHeadway 0.1s
param *.node[*].scenario.caccC1 0.5
param *.node[*].scenario.caccOmegaN "0.2 Hz"
param *.node[*].scenario.caccSpacing 20m
param *.node[*].scenario.caccXi 1
param *.node[*].scenario.controller "\"CACC\""
param *.node[*].scenario.engineTau "0.5 s"
param *.node[*].scenario.leaderHeadway 1.2s
param *.node[*].scenario.leaderSpeed 100kmph
param *.node[*].scenario.ploegH 0.5s
param *.node[*].scenario.ploegKd 0.7
param *.node[*].scenario.ploegKp 0.2
param *.node[*].scenario.useRealisticEngine false
param *.node[*].scenario_type "\"SinusoidalScenario\""
param *.node[*].unicast.packetLossRate 0
param *.obstacles.debug false
param *.playgroundSizeX 65000m
param *.playgroundSizeY 25000m
param *.playgroundSizeZ 50m
param *.world.use2D false
param *.world.useTorus false

vector 0  scenario.node[0].appl  distance  ETV
vector 1  scenario.node[0].appl  relativeSpeed  ETV
vector 2  scenario.node[0].appl  nodeId  ETV
vector 6  scenario.node[0].appl  acceleration  ETV
vector 7  scenario.node[0].appl  controllerAcceleration  ETV
vector 3  scenario.node[0].appl  speed  ETV
vector 4  scenario.node[0].appl  posx  ETV
vector 5  scenario.node[0].appl  posy  ETV
vector 22  scenario.node[1].appl  distance  ETV
vector 23  scenario.node[1].appl  relativeSpeed  ETV
vector 24  scenario.node[1].appl  nodeId  ETV
vector 28  scenario.node[1].appl  acceleration  ETV
vector 29  scenario.node[1].appl  controllerAcceleration  ETV
vector 25  scenario.node[1].appl  speed  ETV
vector 26  scenario.node[1].appl  posx  ETV
vector 27  scenario.node[1].appl  posy  ETV
vector 44  scenario.node[2].appl  distance  ETV
vector 45  scenario.node[2].appl  relativeSpeed  ETV
vector 46  scenario.node[2].appl  nodeId  ETV
vector 50  scenario.node[2].appl  acceleration  ETV
vector 51  scenario.node[2].appl  controllerAcceleration  ETV
vector 47  scenario.node[2].appl  speed  ETV
vector 48  scenario.node[2].appl  posx  ETV
vector 49  scenario.node[2].appl  posy  ETV
vector 66  scenario.node[3].appl  distance  ETV
vector 67  scenario.node[3].appl  relativeSpeed  ETV
vector 68  scenario.node[3].appl  nodeId  ETV
vector 72  scenario.node[3].appl  acceleration  ETV
vector 73  scenario.node[3].appl  controllerAcceleration  ETV
vector 69  scenario.node[3].appl  speed  ETV
vector 70  scenario.node[3].appl  posx  ETV
vector 71  scenario.node[3].appl  posy  ETV
vector 88  scenario.node[4].appl  distance  ETV
vector 89  scenario.node[4].appl  relativeSpeed  ETV
vector 90  scenario.node[4].appl  nodeId  ETV
vector 94  scenario.node[4].appl  acceleration  ETV
vector 95  scenario.node[4].appl  controllerAcceleration  ETV
vector 91  scenario.node[4].appl  speed  ETV
vector 92  scenario.node[4].appl  posx  ETV
vector 93  scenario.node[4].appl  posy  ETV
vector 110  scenario.node[5].appl  distance  ETV
vector 111  scenario.node[5].appl  relativeSpeed  ETV
vector 112  scenario.node[5].appl  nodeId  ETV
vector 116  scenario.node[5].appl  acceleration  ETV
vector 117  scenario.node[5].appl  controllerAcceleration  ETV
vector 113  scenario.node[5].appl  speed  ETV
vector 114  scenario.node[5].appl  posx  ETV
vector 115  scenario.node[5].appl  posy  ETV
vector 132  scenario.node[6].appl  distance  ETV
vector 133  scenario.node[6].appl  relativeSpeed  ETV
vector 134  scenario.node[6].appl  nodeId  ETV
vector 138  scenario.node[6].appl  acceleration  ETV
vector 139  scenario.node[6].appl  controllerAcceleration  ETV
vector 135  scenario.node[6].appl  speed  ETV
vector 136  scenario.node[6].appl  posx  ETV
vector 137  scenario.node[6].appl  posy  ETV
vector 154  scenario.node[7].appl  distance  ETV
vector 155  scenario.node[7].appl  relativeSpeed  ETV
vector 156  scenario.node[7].appl  nodeId  ETV
vector 160  scenario.node[7].appl  acceleration  ETV
vector 161  scenario.node[7].appl  controllerAcceleration  ETV
vector 157  scenario.node[7].appl  speed  ETV
vector 158  scenario.node[7].appl  posx  ETV
vector 159  scenario.node[7].appl  posy  ETV
vector 80  scenario.node[3].prot  frontDelay  ETV
vector 78  scenario.node[3].prot  frontDelayId  ETV
vector 58  scenario.node[2].prot  frontDelay  ETV
vector 56  scenario.node[2].prot  frontDelayId  ETV
vector 168  scenario.node[7].prot  frontDelay  ETV
vector 166  scenario.node[7].prot  frontDelayId  ETV
vector 35  scenario.node[1].prot  leaderDelay  ETV
vector 33  scenario.node[1].prot  leaderDelayId  ETV
vector 36  scenario.node[1].prot  frontDelay  ETV
vector 34  scenario.node[1].prot  frontDelayId  ETV
vector 57  scenario.node[2].prot  leaderDelay  ETV
vector 55  scenario.node[2].prot  leaderDelayId  ETV
vector 79  scenario.node[3].prot  leaderDelay  ETV
vector 77  scenario.node[3].prot  leaderDelayId  ETV
vector 101  scenario.node[4].prot  leaderDelay  ETV
vector 99  scenario.node[4].prot  leaderDelayId  ETV
vector 123  scenario.node[5].prot  leaderDelay  ETV
vector 121  scenario.node[5].prot  leaderDelayId  ETV
vector 145  scenario.node[6].prot  leaderDelay  ETV
vector 143  scenario.node[6].prot  leaderDelayId  ETV
vector 167  scenario.node[7].prot  leaderDelay  ETV
vector 165  scenario.node[7].prot  leaderDelayId  ETV
vector 124  scenario.node[5].prot  frontDelay  ETV
vector 122  scenario.node[5].prot  frontDelayId  ETV
vector 102  scenario.node[4].prot  frontDelay  ETV
vector 100  scenario.node[4].prot  frontDelayId  ETV
vector 146  scenario.node[6].prot  frontDelay  ETV
vector 144  scenario.node[6].prot  frontDelayId  ETV
vector 8  scenario.node[0].prot  nodeId  ETV
vector 9  scenario.node[0].prot  busyTime  ETV
vector 10  scenario.node[0].prot  collisions  ETV
vector 30  scenario.node[1].prot  nodeId  ETV
vector 31  scenario.node[1].prot  busyTime  ETV
vector 32  scenario.node[1].prot  collisions  ETV
vector 52  scenario.node[2].prot  nodeId  ETV
vector 53  scenario.node[2].prot  busyTime  ETV
vector 54  scenario.node[2].prot  collisions  ETV
vector 74  scenario.node[3].prot  nodeId  ETV
vector 75  scenario.node[3].prot  busyTime  ETV
vector 76  scenario.node[3].prot  collisions  ETV
vector 96  scenario.node[4].prot  nodeId  ETV
vector 97  scenario.node[4].prot  busyTime  ETV
vector 98  scenario.node[4].prot  collisions  ETV
vector 118  scenario.node[5].prot  nodeId  ETV
vector 119  scenario.node[5].prot  busyTime  ETV
vector 120  scenario.node[5].prot  collisions  ETV
vector 140  scenario.node[6].prot  nodeId  ETV
vector 141  scenario.node[6].prot  busyTime  ETV
vector 142  scenario.node[6].prot  collisions  ETV
vector 162  scenario.node[7].prot  nodeId  ETV
vector 163  scenario.node[7].prot  busyTime  ETV
vector 164  scenario.node[7].prot  collisions  ETV
7	11088 13860 232 328174 1.11 59.91 589 -1.5 1.5 -14.445974034379 993.24092368185
6	24948 18594 232 328174 1.11 59.91 589 -1.4722746794938 1.4513434175793 -12.50726914995 675.29835222675
5	43542 12081 232 328174 1.11 59.91 589 36.55 36.55 21527.95 786846.5725
4	55623 17897 232 328174 1.11 59.91 589 204.21764297459 1841.867108517 603391.72840376 749925091.84046
3	73520 17905 232 328174 1.11 59.91 589 26.487965859734 29.742492528104 16403.83880962 457295.15275867
1	91425 9725 232 328174 1.11 59.91 589 0 0 0 0
0	101150 10314 232 328174 1.11 59.91 589 -1 -1 -589 589
2	111464 9725 232 328174 1.11 59.91 589 0 0 0 0
10	121189 858 5102 328596 2 60 59 0 0 0 0
9	122047 1154 5102 328596 2 60 59 0.022969 0.02625 1.545469 0.040493199961
8	123201 799 5102 328596 2 60 59 0 0 0 0
29	124000 17341 233 328175 1.11 59.91 589 -1.5112642291228 1.5120701307444 -15.602439407643 992.06669157514
28	141341 19172 233 328175 1.11 59.91 589 -1.4820302895274 1.4492283744282 -12.203158881952 674.69257804877
27	160513 12670 233 328175 1.11 59.91 589 36.55 36.55 21527.95 786846.5725
26	173183 18499 233 328175 1.11 59.91 589 180.21764297485 1817.8409200826 589220.07126859 721213248.73141
25	191682 18477 233 328175 1.11 59.91 589 26.484959834617 29.741426917503 16403.590028604 457280.9609689
23	210159 20106 233 328175 1.11 59.91 589 -0.07351215029782 0.077026299510202 0.37385370701192 1.761927027086
22	230265 18476 233 328175 1.11 59.91 589 19.939712208032 20.179296883787 11815.652159552 237030.40829869
24	248741 10314 233 328175 1.11 59.91 589 1 1 589 589
36	259055 23671 1032 328418 1.254913282269 59.954927741773 588 0.099897340276 0.100093483072 58.800027701054 5.8800065875065
35	282726 23671 1032 328418 1.254913282269 59.954927741773 588 0.099897340276 0.100093483072 58.800027701054 5.8800065875065
34	306397 16112 1032 328418 1.254913282269 59.954927741773 588 1 1 588 588
33	322509 16112 1032 328418 1.254913282269 59.954927741773 588 1 1 588 588
32	338621 858 5103 328597 2 60 59 0 0 0 0
31	339479 1213 5103 328597 2 60 59 0.022969 0.02625 1.545469 0.040493199961
30	340692 858 5103 328597 2 60 59 1 1 59 59
51	341550 19059 234 328176 1.11 59.91 589 -1.4951715929476 1.4969403141346 -15.57500778468 971.91297367622
50	360609 19177 234 328176 1.11 59.91 589 -1.4749478849591 1.4483793295192 -11.883492654955 671.91386152605
49	379786 12670 234 328176 1.11 59.91 589 36.55 36.55 21527.95 786846.5725
48	392456 18503 234 328176 1.11 59.91 589 156.21764297485 1793.9167854288 575097.00812208 693303844.6011
47	410959 18498 234 328176 1.11 59.91 589 26.488661481507 29.738423576886 16404.359084902 457321.48796418
45	429457 20135 234 328176 1.11 59.91 589 -0.042015735631203 0.035321632278009 -0.64702470898627 0.40721633702802
44	449592 18468 234 328176 1.11 59.91 589 19.918027116195 20.070368566761 11767.078527638 235084.12552951
46	468060 10314 234 328176 1.11 59.91 589 2 2 1178 2356
58	478374 23622 900 328280 1.22965940166 59.929660085723 588 0.099987240007 0.100002557067 58.800000925613 5.8800001911362
57	501996 23659 1038 328424 1.254913362325 59.954927821572 588 0.099897340291 0.100093483085 58.800027700797 5.8800065874551
56	525655 16081 900 328280 1.22965940166 59.929660085723 588 2 2 1176 2352
55	541736 16108 1038 328424 1.254913362325 59.954927821572 588 2 2 1176 2352
54	557844 858 5104 328598 2 60 59 0 0 0 0
53	558702 1213 5104 328598 2 60 59 0.022969 0.02625 1.545469 0.040493199961
52	559915 858 5104 328598 2 60 59 2 2 118 236
73	560773 19070 235 328177 1.11 59.91 589 -1.4890347547433 1.4892809837569 -15.518618205504 946.30555363027
72	579843 19165 235 328177 1.11 59.91 589 -1.4633940841826 1.4358250217548 -11.63584988337 660.083547561
71	599008 12670 235 328177 1.11 59.91 589 36.55 36.55 21527.95 786846.5725
70	611678 18496 235 328177 1.11 59.91 589 132.21764297485 1769.9344643051 560962.46031297 666042164.3547
69	630174 18487 235 328177 1.11 59.91 589 26.50145233166 29.728259437828 16404.544785123 457324.37457795
67	648661 20349 235 328177 1.11 59.91 589 -0.022576863839589 0.018794910007784 -0.066865294238362 0.075435322795314
66	669010 18454 235 328177 1.11 59.91 589 19.965708993444 20.045084633357 11778.551523114 235542.25187959
68	687464 10314 235 328177 1.11 59.91 589 3 3 1767 5301
80	697778 23656 832 328218 1.213906321605 59.913907006116 588 0.099987241264 0.10000255708 58.800000926061 5.880000191242
79	721434 23619 1044 328430 1.25491344238 59.954927901565 588 0.0998973403 0.100093483096 58.800027700735 5.8800065874427
78	745053 16114 832 328218 1.213906321605 59.913907006116 588 3 3 1764 5292
77	761167 16074 1044 328430 1.25491344238 59.954927901565 588 3 3 1764 5292
76	777241 858 5105 328599 2 60 59 0 0 0 0
75	778099 1213 5105 328599 2 60 59 0.022968 0.02625 1.545468 0.040493154024
74	779312 858 5105 328599 2 60 59 3 3 177 531
95	780170 19140 236 328178 1.11 59.91 589 -4.3354969881353 1.5 -7.7260622972561 782.83616503881
94	799310 19253 236 328178 1.11 59.91 589 -3.1934530116562 1.4260514185672 -8.0672406044066 608.10935061358
93	818563 12670 236 328178 1.11 59.91 589 36.55 36.55 21527.95 786846.5725
92	831233 18481 236 328178 1.11 59.91 589 108.21764297485 1623.1115942619 521516.21394008 569379859.27478
91	849714 18514 236 328178 1.11 59.91 589 17.343859578033 29.716237745189 15176.435383073 397090.4615867
89	868228 19554 236 328178 1.11 59.91 589 -0.32006895064986 9.6568367864262 1228.2257605488 8321.0471870014
88	887782 18488 236 328178 1.11 59.91 589 19.984401961259 142.91675702063 37065.684184848 3851347.9839193
90	906270 10314 236 328178 1.11 59.91 589 4 4 2356 9424
102	916584 24265 1246 328653 1.303564162878 60.003553772549 588 0.09998724155 0.100002556711 58.799989851221 5.8799979763883
101	940849 24260 1050 328436 1.254913522436 59.954928391267 588 0.09989734221 0.100093483481 58.800028110381 5.8800066693719
100	965109 16713 1246 328653 1.303564162878 60.003553772549 588 4 4 2352 9408
99	981822 16119 1050 328436 1.254913522436 59.954928391267 588 4 4 2352 9408
98	997941 858 5106 328600 2 60 59 0 0 0 0
97	998799 1213 5106 328600 2 60 59 0.022969 0.02625 1.545469 0.040493199961
96	1000012 858 5106 328600 2 60 59 4 4 236 944
117	1000870 19790 237 328179 1.11 59.91 589 -2.4357573674511 1.6337461326513 -17.605166690621 802.91225382331
116	1020660 19869 237 328179 1.11 59.91 589 -2.0733442486623 1.5658228811585 -15.520672767654 578.27877062874
115	1040529 13259 237 328179 1.11 59.91 589 36.55 36.55 21527.95 786846.5725
114	1053788 19069 237 328179 1.11 59.91 589 84.217642974854 1601.7583125481 510312.55245192 551606399.01326
113	1072857 19079 237 328179 1.11 59.91 589 19.353857654222 29.708379630114 15202.644525434 397066.87884643
111	1091936 20182 237 328179 1.11 59.91 589 -3.7053672485187 1.485811408468 -26.128469954786 609.06147251071
110	1112118 19075 237 328179 1.11 59.91 589 1.9122512543759 20.032942220502 8848.1856710022 155824.58947555
112	1131193 10903 237 328179 1.11 59.91 589 5 5 2945 14725
124	1142096 24236 1172 328552 1.265750082823 59.965751864565 588 0.099987240401 0.100002559064 58.800002023292 5.8800004106617
123	1166332 24250 1056 328442 1.254913602491 59.954928462592 588 0.099897342403 0.100093483504 58.800028101651 5.8800066676259
122	1190582 16703 1172 328552 1.265750082823 59.965751864565 588 5 5 2940 14700
121	1207285 16705 1056 328442 1.254913602491 59.954928462592 588 5 5 2940 14700
120	1223990 917 5107 328601 2 60 59 0 0 0 0
119	1224907 1272 5107 328601 2 60 59 0.022968 0.02625 1.545468 0.040493154024
118	1226179 917 5107 328601 2 60 59 5 5 295 1475
139	1227096 19727 238 328180 1.11 59.91 589 -2.4215545524705 1.7009039233287 -23.814302478808 862.51984064661
138	1246823 19853 238 328180 1.11 59.91 589 -2.1833241706222 1.6255084477528 -21.577697756808 623.00800401365
137	1266676 13259 238 328180 1.11 59.91 589 36.55 36.55 21527.95 786846.5725
136	1279935 19083 238 328180 1.11 59.91 589 60.217642974853 1581.6917792284 498976.15690464 534200438.84953
135	1299018 19074 238 328180 1.11 59.91 589 20.046210497724 29.713639746548 15241.767485462 398301.78154627
133	1318092 20351 238 328180 1.11 59.91 589 -2.3398562038938 1.0099524089956 -38.967753301164 354.14703342894
132	1338443 19055 238 328180 1.11 59.91 589 4.7384844712385 20.011817415423 8981.1780064797 155936.96908344
134	1357498 10903 238 328180 1.11 59.91 589 6 6 3534 21204
146	1368401 24253 1312 328701 1.305160322989 60.005162911113 588 0.099987240083 0.100002559037 58.800002829674 5.8800005719475
145	1392654 24248 1062 328448 1.254913682546 59.954928529608 588 0.099897342402 0.100093483633 58.800028088612 5.8800066650181
144	1416902 16705 1312 328701 1.305160322989 60.005162911113 588 6 6 3528 21168
143	1433607 16716 1062 328448 1.254913682546 59.954928529608 588 6 6 3528 21168
142	1450323 917 5108 328602 2 60 59 0 0 0 0
141	1451240 1272 5108 328602 2 60 59 0.022969 0.02625 1.545469 0.040493199961
140	1452512 917 5108 328602 2 60 59 6 6 354 2124
161	1453429 19701 239 328181 1.11 59.91 589 -2.2528857455064 1.7295112936146 -29.813322573052 938.0521988876
160	1473130 19826 239 328181 1.11 59.91 589 -2.1323749833758 1.6347269007468 -27.120656805338 652.78655041338
159	1492956 13259 239 328181 1.11 59.91 589 36.55 36.55 21527.95 786846.5725
158	1506215 19082 239 328181 1.11 59.91 589 36.217641067505 1562.9369125696 487478.51408393 517054532.97385
157	1525297 19090 239 328181 1.11 59.91 589 20.787978382065 29.718245299553 15294.025636542 400512.12008145
155	1544387 20520 239 328181 1.11 59.91 589 -1.614151397995 0.7423204534893 -52.042374102344 227.98601707225
154	1564907 19081 239 328181 1.11 59.91 589 6.1877958998857 20.027111099417 9142.6879837343 158343.55965784
156	1583988 10903 239 328181 1.11 59.91 589 7 7 4123 28861
168	1594891 24240 975 328355 1.254434801937 59.954435856295 588 0.099987240242 0.10000255758 58.800001295908 5.8800002652043
167	1619131 24252 1068 328454 1.254913762602 59.954928592241 588 0.099897342249 0.100093483811 58.800028071189 5.8800066615336
166	1643383 16701 975 328355 1.254434801937 59.954435856295 588 7 7 4116 28812
165	1660084 16713 1068 328454 1.254913762602 59.954928592241 588 7 7 4116 28812
164	1676797 917 5109 328603 2 60 59 0 0 0 0
163	1677714 1272 5109 328603 2 60 59 0.022969 0.02625 1.545469 0.040493199961
162	1678986 917 5109 328603 2 60 59 7 7 413 2891
