file 896263 1512143861                                          
version 2
run SinusoidalAccInjectionAttack-180-20171201-16:57:25-35166
attr CACCSpacing 5
attr attackAcc 10
attr attackPos 7
attr attackSpeed 150
attr attackStart 30
attr attacker 4
attr beaconInterval 0.1
attr configname SinusoidalAccInjectionAttack
attr controller 1
attr datetime 20171201-16:57:25
attr experiment SinusoidalAccInjectionAttack
attr fakeAcc "(4 == 4)"
attr fakePos "(4 == 2)"
attr fakeSpeed "(4 == 3)"
attr inifile omnetpp_180.ini
attr iterationvars "$attacker=4, $attackSpeed=150, $attackPos=7, $attackAcc=10, $leaderSpeed=50, $controller=1, $CACCSpacing=5, $sController=\"CACC\", $attackStart=30, $0=5, $1=0, $nCars=8, $platoonSize=8, $nLanes=1, $beaconInterval=0.1, $priority=2, $packetSize=200, $ploegH=0.5, $leaderHeadway=1.2, $fakeSpeed=(4 == 3), $fakeAcc=(4 == 4), $fakePos=(4 == 2)"
attr iterationvarsf attacker=4,attackSpeed=150,attackPos=7,attackAcc=10,leaderSpeed=50,controller=1,CACCSpacing=5,sController=CACC,attackStart=30,5,0,nCars=8,platoonSize=8,nLanes=1,beaconInterval=0.1,priority=2,packetSize=200,ploegH=0.5,leaderHeadway=1.2,fakeSpeed=(4_==_3),fakeAcc=(4_==_4),fakePos=(4_==_2)-
attr leaderHeadway 1.2
attr leaderSpeed 50
attr measurement "$attacker=4, $attackSpeed=150, $attackPos=7, $attackAcc=10, $leaderSpeed=50, $controller=1, $CACCSpacing=5, $sController=\"CACC\", $attackStart=30, $0=5, $1=0, $nCars=8, $platoonSize=8, $nLanes=1, $beaconInterval=0.1, $priority=2, $packetSize=200, $ploegH=0.5, $leaderHeadway=1.2, $fakeSpeed=(4 == 3), $fakeAcc=(4 == 4), $fakePos=(4 == 2)"
attr nCars 8
attr nLanes 1
attr network scenario
attr packetSize 200
attr platoonSize 8
attr ploegH 0.5
attr priority 2
attr processid 35166
attr repetition 0
attr replication #0
attr resultdir results
attr runnumber 180
attr sController "\"CACC\""
attr seedset 0
param **.coreDebug false
param **.debug false
param **.headway 0.1s
param **.numberOfCars 8
param **.numberOfCarsPerPlatoon 8
param **.numberOfLanes 1
param **.numericController 1
param **.traffic.nCars 8
param **.traffic.nLanes 1
param **.traffic.platoonInsertDistance 5m
param **.traffic.platoonInsertHeadway 0s
param **.traffic.platoonInsertSpeed 50kmph
param **.traffic.platoonInsertTime "1 s"
param **.traffic.platoonLeaderHeadway 1.2s
param **.traffic.platoonSize 8
param **.traffic.platooningVType "\"vtypeauto\""
param **.traffic_type "\"PlatoonsTrafficManager\""
param *.**.nic.mac1609_4.bitrate 6Mbps
param *.**.nic.mac1609_4.txPower 100mW
param *.**.nic.mac1609_4.useServiceChannel false
param *.**.nic.phy80211p.analogueModels "xmldoc(\"config.xml\")"
param *.**.nic.phy80211p.decider "xmldoc(\"config.xml\")"
param *.**.nic.phy80211p.maxTXPower 100mW
param *.**.nic.phy80211p.sensitivity -94dBm
param *.**.nic.phy80211p.thermalNoise -95dBm
param *.**.nic.phy80211p.usePropagationDelay true
param *.**.nic.phy80211p.useThermalNoise true
param *.annotations.draw false
param *.connectionManager.alpha 2.0
param *.connectionManager.carrierFrequency "5.890e9 Hz"
param *.connectionManager.pMax 100mW
param *.connectionManager.sat -94dBm
param *.connectionManager.sendDirect true
param *.manager.autoShutdown true
param *.manager.commandLine "\"sumo --remote-port $port --seed $seed --configuration-file $configFile\""
param *.manager.configFile "\"./sumocfg/freeway.sumo.cfg\""
param *.manager.host "\"localhost\""
param *.manager.margin 25
param *.manager.moduleDisplayString "\"\""
param *.manager.moduleName "\"node\""
param *.manager.moduleType "\"Car\""
param *.manager.updateInterval 0.01s
param *.node[*].appl.attackStart 30s
param *.node[*].appl.attackerType 4
param *.node[*].appl.simulationDuration "60 s"
param *.node[*].appl_type "\"SimplePlatooningApp\""
param *.node[*].helper.nCars 8
param *.node[*].helper.nLanes 1
param *.node[*].helper.platoonSize 8
param *.node[*].helper_type "\"PositionHelper\""
param *.node[*].mobility.x 0
param *.node[*].mobility.y 0
param *.node[*].mobility.z 1.895
param *.node[*].prot.attackStart 30s
param *.node[*].prot.attackerType 4
param *.node[*].prot.attackingNode 3
param *.node[*].prot.beaconingInterval 0.1s
param *.node[*].prot.fakeAcc "(4 == 4)"
param *.node[*].prot.fakePos "(4 == 2)"
param *.node[*].prot.fakeSpeed "(4 == 3)"
param *.node[*].prot.maliciousAcc "10 mpss"
param *.node[*].prot.maliciousSpeed 150kmph
param *.node[*].prot.packetSize 200
param *.node[*].prot.priority 2
param *.node[*].prot.shiftX "7 m"
param *.node[*].prot.useControllerAcceleration true
param *.node[*].protocol_type "\"SimplePlatooningBeaconing\""
param *.node[*].scenario.accHeadway 0.1s
param *.node[*].scenario.caccC1 0.5
param *.node[*].scenario.caccOmegaN "0.2 Hz"
param *.node[*].scenario.caccSpacing 5m
param *.node[*].scenario.caccXi 1
param *.node[*].scenario.controller "\"CACC\""
param *.node[*].scenario.engineTau "0.5 s"
param *.node[*].scenario.leaderHeadway 1.2s
param *.node[*].scenario.leaderSpeed 50kmph
param *.node[*].scenario.ploegH 0.5s
param *.node[*].scenario.ploegKd 0.7
param *.node[*].scenario.ploegKp 0.2
param *.node[*].scenario.useRealisticEngine false
param *.node[*].scenario_type "\"SinusoidalScenario\""
param *.node[*].unicast.packetLossRate 0
param *.obstacles.debug false
param *.playgroundSizeX 65000m
param *.playgroundSizeY 25000m
param *.playgroundSizeZ 50m
param *.world.use2D false
param *.world.useTorus false

vector 0  scenario.node[0].appl  distance  ETV
vector 1  scenario.node[0].appl  relativeSpeed  ETV
vector 2  scenario.node[0].appl  nodeId  ETV
vector 6  scenario.node[0].appl  acceleration  ETV
vector 7  scenario.node[0].appl  controllerAcceleration  ETV
vector 3  scenario.node[0].appl  speed  ETV
vector 4  scenario.node[0].appl  posx  ETV
vector 5  scenario.node[0].appl  posy  ETV
vector 22  scenario.node[1].appl  distance  ETV
vector 23  scenario.node[1].appl  relativeSpeed  ETV
vector 24  scenario.node[1].appl  nodeId  ETV
vector 28  scenario.node[1].appl  acceleration  ETV
vector 29  scenario.node[1].appl  controllerAcceleration  ETV
vector 25  scenario.node[1].appl  speed  ETV
vector 26  scenario.node[1].appl  posx  ETV
vector 27  scenario.node[1].appl  posy  ETV
vector 44  scenario.node[2].appl  distance  ETV
vector 45  scenario.node[2].appl  relativeSpeed  ETV
vector 46  scenario.node[2].appl  nodeId  ETV
vector 50  scenario.node[2].appl  acceleration  ETV
vector 51  scenario.node[2].appl  controllerAcceleration  ETV
vector 47  scenario.node[2].appl  speed  ETV
vector 48  scenario.node[2].appl  posx  ETV
vector 49  scenario.node[2].appl  posy  ETV
vector 66  scenario.node[3].appl  distance  ETV
vector 67  scenario.node[3].appl  relativeSpeed  ETV
vector 68  scenario.node[3].appl  nodeId  ETV
vector 72  scenario.node[3].appl  acceleration  ETV
vector 73  scenario.node[3].appl  controllerAcceleration  ETV
vector 69  scenario.node[3].appl  speed  ETV
vector 70  scenario.node[3].appl  posx  ETV
vector 71  scenario.node[3].appl  posy  ETV
vector 88  scenario.node[4].appl  distance  ETV
vector 89  scenario.node[4].appl  relativeSpeed  ETV
vector 90  scenario.node[4].appl  nodeId  ETV
vector 94  scenario.node[4].appl  acceleration  ETV
vector 95  scenario.node[4].appl  controllerAcceleration  ETV
vector 91  scenario.node[4].appl  speed  ETV
vector 92  scenario.node[4].appl  posx  ETV
vector 93  scenario.node[4].appl  posy  ETV
vector 110  scenario.node[5].appl  distance  ETV
vector 111  scenario.node[5].appl  relativeSpeed  ETV
vector 112  scenario.node[5].appl  nodeId  ETV
vector 116  scenario.node[5].appl  acceleration  ETV
vector 117  scenario.node[5].appl  controllerAcceleration  ETV
vector 113  scenario.node[5].appl  speed  ETV
vector 114  scenario.node[5].appl  posx  ETV
vector 115  scenario.node[5].appl  posy  ETV
vector 132  scenario.node[6].appl  distance  ETV
vector 133  scenario.node[6].appl  relativeSpeed  ETV
vector 134  scenario.node[6].appl  nodeId  ETV
vector 138  scenario.node[6].appl  acceleration  ETV
vector 139  scenario.node[6].appl  controllerAcceleration  ETV
vector 135  scenario.node[6].appl  speed  ETV
vector 136  scenario.node[6].appl  posx  ETV
vector 137  scenario.node[6].appl  posy  ETV
vector 154  scenario.node[7].appl  distance  ETV
vector 155  scenario.node[7].appl  relativeSpeed  ETV
vector 156  scenario.node[7].appl  nodeId  ETV
vector 160  scenario.node[7].appl  acceleration  ETV
vector 161  scenario.node[7].appl  controllerAcceleration  ETV
vector 157  scenario.node[7].appl  speed  ETV
vector 158  scenario.node[7].appl  posx  ETV
vector 159  scenario.node[7].appl  posy  ETV
vector 80  scenario.node[3].prot  frontDelay  ETV
vector 78  scenario.node[3].prot  frontDelayId  ETV
vector 58  scenario.node[2].prot  frontDelay  ETV
vector 56  scenario.node[2].prot  frontDelayId  ETV
vector 168  scenario.node[7].prot  frontDelay  ETV
vector 166  scenario.node[7].prot  frontDelayId  ETV
vector 35  scenario.node[1].prot  leaderDelay  ETV
vector 33  scenario.node[1].prot  leaderDelayId  ETV
vector 36  scenario.node[1].prot  frontDelay  ETV
vector 34  scenario.node[1].prot  frontDelayId  ETV
vector 57  scenario.node[2].prot  leaderDelay  ETV
vector 55  scenario.node[2].prot  leaderDelayId  ETV
vector 79  scenario.node[3].prot  leaderDelay  ETV
vector 77  scenario.node[3].prot  leaderDelayId  ETV
vector 101  scenario.node[4].prot  leaderDelay  ETV
vector 99  scenario.node[4].prot  leaderDelayId  ETV
vector 123  scenario.node[5].prot  leaderDelay  ETV
vector 121  scenario.node[5].prot  leaderDelayId  ETV
vector 145  scenario.node[6].prot  leaderDelay  ETV
vector 143  scenario.node[6].prot  leaderDelayId  ETV
vector 167  scenario.node[7].prot  leaderDelay  ETV
vector 165  scenario.node[7].prot  leaderDelayId  ETV
vector 124  scenario.node[5].prot  frontDelay  ETV
vector 122  scenario.node[5].prot  frontDelayId  ETV
vector 102  scenario.node[4].prot  frontDelay  ETV
vector 100  scenario.node[4].prot  frontDelayId  ETV
vector 146  scenario.node[6].prot  frontDelay  ETV
vector 144  scenario.node[6].prot  frontDelayId  ETV
vector 8  scenario.node[0].prot  nodeId  ETV
vector 9  scenario.node[0].prot  busyTime  ETV
vector 10  scenario.node[0].prot  collisions  ETV
vector 30  scenario.node[1].prot  nodeId  ETV
vector 31  scenario.node[1].prot  busyTime  ETV
vector 32  scenario.node[1].prot  collisions  ETV
vector 52  scenario.node[2].prot  nodeId  ETV
vector 53  scenario.node[2].prot  busyTime  ETV
vector 54  scenario.node[2].prot  collisions  ETV
vector 74  scenario.node[3].prot  nodeId  ETV
vector 75  scenario.node[3].prot  busyTime  ETV
vector 76  scenario.node[3].prot  collisions  ETV
vector 96  scenario.node[4].prot  nodeId  ETV
vector 97  scenario.node[4].prot  busyTime  ETV
vector 98  scenario.node[4].prot  collisions  ETV
vector 118  scenario.node[5].prot  nodeId  ETV
vector 119  scenario.node[5].prot  busyTime  ETV
vector 120  scenario.node[5].prot  collisions  ETV
vector 140  scenario.node[6].prot  nodeId  ETV
vector 141  scenario.node[6].prot  busyTime  ETV
vector 142  scenario.node[6].prot  collisions  ETV
vector 162  scenario.node[7].prot  nodeId  ETV
vector 163  scenario.node[7].prot  busyTime  ETV
vector 164  scenario.node[7].prot  collisions  ETV
7	11071 7557 232 175897 1.11 32.61 316 -1.5 1.5 12.24602282122 496.05984018651
6	18628 9899 232 175897 1.11 32.61 316 -1.472274679513 1.4513407705126 12.900440183864 335.54468542163
5	28527 6348 232 175897 1.11 32.61 316 36.55 36.55 11549.8 422145.19
4	34875 9479 232 175897 1.11 32.61 316 97.828754043446 539.26217627621 101022.88375348 37456858.150439
3	44354 9475 232 175897 1.11 32.61 316 12.59914837223 15.853603639796 4428.6749334905 62299.869944707
1	53829 5084 232 175897 1.11 32.61 316 0 0 0 0
0	58913 5400 232 175897 1.11 32.61 316 -1 -1 -316 316
2	64313 5084 232 175897 1.11 32.61 316 0 0 0 0
10	69397 438 5102 172412 2 32 31 0 0 0 0
9	69835 594 5102 172412 2 32 31 0.022969 0.02625 0.810469 0.021199449961
8	70429 407 5102 172412 2 32 31 0 0 0 0
29	70836 10155 233 175898 1.11 32.61 316 -1.5129716528829 1.512964842033 13.402208302037 496.81231127745
28	80991 10200 233 175898 1.11 32.61 316 -1.4840815552393 1.4595456976263 12.94114730785 337.74232800583
27	91191 6664 233 175898 1.11 32.61 316 36.55 36.55 11549.8 422145.19
26	97855 9791 233 175898 1.11 32.61 316 88.828754043579 530.18317489949 98177.884879816 35663902.192382
25	107646 9793 233 175898 1.11 32.61 316 12.594909075003 15.859715426624 4427.8852378801 62278.915104494
23	117439 10686 233 175898 1.11 32.61 316 -0.074693820605304 0.072861100851959 0.66069120852802 0.88591059356513
22	128125 9789 233 175898 1.11 32.61 316 4.9147226200045 5.11131550734 1580.9830797498 7910.7019669797
24	137914 5400 233 175898 1.11 32.61 316 1 1 316 316
36	143314 12568 1032 176141 1.254911230853 32.654858849935 315 0.099907839697 0.100089841893 31.499959459664 3.1499924166873
35	155882 12568 1032 176141 1.254911230853 32.654858849935 315 0.099907839697 0.100089841893 31.499959459664 3.1499924166873
34	168450 8509 1032 176141 1.254911230853 32.654858849935 315 1 1 315 315
33	176959 8509 1032 176141 1.254911230853 32.654858849935 315 1 1 315 315
32	185468 438 5103 172413 2 32 31 0 0 0 0
31	185906 625 5103 172413 2 32 31 0.022969 0.02625 0.810469 0.021199449961
30	186531 438 5103 172413 2 32 31 1 1 31 31
51	186969 10160 234 175899 1.11 32.61 316 -1.4952754267034 1.4970992125241 13.862935246166 482.96542778597
50	197129 10223 234 175899 1.11 32.61 316 -1.4761121290563 1.4494360546511 12.826840737554 334.38688116674
49	207352 6664 234 175899 1.11 32.61 316 36.55 36.55 11549.8 422145.19
48	214016 9783 234 175899 1.11 32.61 316 79.828754043579 521.14109964416 95333.387622095 33922488.049633
47	223799 9794 234 175899 1.11 32.61 316 12.600718385035 15.854453942917 4427.4596027323 62264.348997464
45	233593 10693 234 175899 1.11 32.61 316 -0.042592453618237 0.039108605105241 0.29622367474126 0.2120022749258
44	244286 9778 234 175899 1.11 32.61 316 4.9490553780142 5.0735113438961 1580.4887450181 7905.189659531
46	254064 5400 234 175899 1.11 32.61 316 2 2 632 1264
58	259464 12563 900 176003 1.229657900624 32.629657534468 315 0.099998795896 0.100011842923 31.499998474426 3.1499996991967
57	272027 12563 1038 176147 1.254911260874 32.654858880098 315 0.099907839705 0.100089841908 31.499959459806 3.1499924167157
56	284590 8493 900 176003 1.229657900624 32.629657534468 315 2 2 630 1260
55	293083 8499 1038 176147 1.254911260874 32.654858880098 315 2 2 630 1260
54	301582 438 5104 172414 2 32 31 0 0 0 0
53	302020 625 5104 172414 2 32 31 0.022969 0.02625 0.810469 0.021199449961
52	302645 438 5104 172414 2 32 31 2 2 62 124
73	303083 10152 235 175900 1.11 32.61 316 -1.4890877726286 1.4891492922908 13.940794518162 469.70469500808
72	313235 10221 235 175900 1.11 32.61 316 -1.4634887733029 1.4362599129383 12.663524349745 328.333197894
71	323456 6664 235 175900 1.11 32.61 316 36.55 36.55 11549.8 422145.19
70	330120 9789 235 175900 1.11 32.61 316 70.828754043579 512.12236011625 92488.83696235 32232249.414789
69	339909 9788 235 175900 1.11 32.61 316 12.613692769581 15.841159355063 4427.2661205162 62254.797227179
67	349697 10800 235 175900 1.11 32.61 316 -0.022067713649763 0.020412768889207 0.065213808758081 0.039929432599042
66	360497 9753 235 175900 1.11 32.61 316 4.970444737773 5.0493611819021 1580.5467901009 7905.5789334464
68	370250 5400 235 175900 1.11 32.61 316 3 3 948 2844
80	375650 12585 832 175935 1.213904870603 32.613904504228 315 0.099998795888 0.100011843023 31.499998474207 3.1499996991526
79	388235 12575 1044 176153 1.254911290894 32.654858910183 315 0.099907839706 0.100089841918 31.499959459871 3.1499924167287
78	400810 8506 832 175935 1.213904870603 32.613904504228 315 3 3 945 2835
77	409316 8499 1044 176153 1.254911290894 32.654858910183 315 3 3 945 2835
76	417815 438 5105 172415 2 32 31 0 0 0 0
75	418253 625 5105 172415 2 32 31 0.022968 0.02625 0.810468 0.021199404024
74	418878 438 5105 172415 2 32 31 3 3 93 279
117	419316 10460 237 175902 1.11 32.61 316 -1.4896672653972 3.621317707655 60.634978395828 663.81183362245
116	429776 10394 237 175902 1.11 32.61 316 -1.4475619112307 2.5 42.956083852543 420.32500852137
115	440170 6980 237 175902 1.11 32.61 316 36.55 36.55 11549.8 422145.19
114	447150 10114 237 175902 1.11 32.61 316 52.82875213623 497.78725611604 86830.905958699 29035395.168426
113	457264 10107 237 175902 1.11 32.61 316 12.627319334284 18.104944864893 4464.9640314537 63401.481412563
111	467371 10971 237 175902 1.11 32.61 316 -0.038476785506454 0.58777917755675 11.031001157615 4.9906941794021
110	478342 10108 237 175902 1.11 32.61 316 4.9765764929601 6.1181448563079 1594.2258901644 8052.3549087708
112	488450 5716 237 175902 1.11 32.61 316 5 5 1580 7900
124	494166 12883 1172 176281 1.26574753106 32.665747162557 315 0.099998795253 0.100011842825 31.499998472079 3.1499996987276
123	507049 12875 1056 176165 1.254911350936 32.654858957597 315 0.099907839698 0.100089841915 31.499959447243 3.1499924142031
122	519924 8823 1172 176281 1.26574753106 32.665747162557 315 5 5 1575 7875
121	528747 8813 1056 176165 1.254911350936 32.654858957597 315 5 5 1575 7875
120	537560 469 5107 172417 2 32 31 0 0 0 0
119	538029 656 5107 172417 2 32 31 0.022968 0.02625 0.810468 0.021199404024
118	538685 469 5107 172417 2 32 31 5 5 155 775
139	539154 10446 238 175903 1.11 32.61 316 -1.4807582969135 2.5582380571318 38.016190616016 540.49206370758
138	549600 10490 238 175903 1.11 32.61 316 -1.4503739142492 2.3541292687916 33.073322284321 386.76857243192
137	560090 6980 238 175903 1.11 32.61 316 36.55 36.55 11549.8 422145.19
136	567070 10111 238 175903 1.11 32.61 316 43.82875213623 487.40341605747 83972.676086416 27484774.736435
135	577181 10109 238 175903 1.11 32.61 316 12.621183743817 17.145110049196 4450.7852729029 62958.571512455
133	587290 10990 238 175903 1.11 32.61 316 -0.019933724812907 0.94191498214279 13.749197712267 9.0763830439616
132	598280 10093 238 175903 1.11 32.61 316 4.9922591859855 6.364643362248 1593.9462971121 8051.0698681271
134	608373 5716 238 175903 1.11 32.61 316 6 6 1896 11376
146	614089 12853 1312 175865 1.305157621123 32.605158430752 314 0.099998797156 0.100011842696 31.399999650211 3.1399999343525
145	626942 12877 1062 176171 1.254911380957 32.654858992365 315 0.099907839699 0.100089841913 31.49995945199 3.1499924151525
144	639819 8800 1312 175865 1.305157621123 32.605158430752 314 6 6 1884 11304
143	648619 8815 1062 176171 1.254911380957 32.654858992365 315 6 6 1890 11340
142	657434 469 5108 172418 2 32 31 0 0 0 0
141	657903 656 5108 172418 2 32 31 0.022969 0.02625 0.810469 0.021199449961
140	658559 469 5108 172418 2 32 31 6 6 186 1116
161	659028 10446 239 175904 1.11 32.61 316 -1.4938774158628 2.0687049690661 28.461225216879 517.70139811014
160	669474 10525 239 175904 1.11 32.61 316 -1.4564665653559 1.9893647317179 24.112084188018 357.66645711147
159	679999 6980 239 175904 1.11 32.61 316 36.55 36.55 11549.8 422145.19
158	686979 10101 239 175904 1.11 32.61 316 34.82875213623 477.29910712435 81118.794768016 25989983.647118
157	697080 10108 239 175904 1.11 32.61 316 12.61888223279 16.257602154185 4439.429513249 62611.977411661
155	707188 11164 239 175904 1.11 32.61 316 -0.0095325885753255 0.87496074243078 11.02502643109 6.8516258202156
154	718352 10100 239 175904 1.11 32.61 316 4.978517011545 6.0865587752239 1589.6542032068 8002.7453811669
156	728452 5716 239 175904 1.11 32.61 316 7 7 2212 15484
168	734168 12868 975 176078 1.254433050728 32.654432680761 315 0.099998795536 0.100011842991 31.499998470615 3.1499996984344
167	747036 12882 1068 176177 1.254911410977 32.654859026189 315 0.099907839704 0.10008984192 31.499959455794 3.1499924159133
166	759918 8817 975 176078 1.254433050728 32.654432680761 315 7 7 2205 15435
165	768735 8816 1068 176177 1.254911410977 32.654859026189 315 7 7 2205 15435
164	777551 469 5109 172419 2 32 31 0 0 0 0
163	778020 656 5109 172419 2 32 31 0.022969 0.02625 0.810469 0.021199449961
162	778676 469 5109 172419 2 32 31 7 7 217 1519
88	779145 9785 236 176313 1.11 32.67 317 0 5.0268301000229 1536.4590717049 7596.7632259617
89	788930 10833 236 176313 1.11 32.67 317 -3.7351165096163 0.014563172885763 -53.083848065037 133.96165532092
90	799763 5418 236 176313 1.11 32.67 317 4 4 1268 5072
91	805181 9795 236 176313 1.11 32.67 317 12.624293207629 18.86772404245 4495.3559408705 64120.741977754
92	814976 9824 236 176313 1.11 32.67 317 61.828754043579 509.04746999844 90198.40980257 30896961.302705
93	824800 6686 236 176313 1.11 32.67 317 36.55 36.55 11586.35 423481.0925
94	831486 10073 236 176313 1.11 32.67 317 -1.4527428031657 2.5 51.818421674197 450.21188038907
95	841559 10154 236 176313 1.11 32.67 317 -1.4821537219925 5.6883579005813 109.88902580256 1012.6409959735
96	851713 438 5106 172416 2 32 31 4 4 124 496
97	852151 625 5106 172416 2 32 31 0.022969 0.02625 0.810469 0.021199449961
98	852776 438 5106 172416 2 32 31 0 0 0 0
99	853214 8508 1050 176159 1.254911320915 32.65485892372 315 4 4 1260 5040
100	861722 8796 1246 175793 1.303561561081 32.603562362376 314 4 4 1256 5024
101	870518 12890 1050 176159 1.254911320915 32.65485892372 315 0.099907839704 0.100089841921 31.499959443387 3.1499924134319
102	883408 12855 1246 175793 1.303561561081 32.603562362376 314 0.099998796648 0.100011843011 31.399999641877 3.139999932685
