file 867262 1512142907                                          
version 2
run SinusoidalAccInjectionAttack-1-20171201-16:41:30-2512
attr CACCSpacing 5
attr attackAcc -30
attr attackPos 7
attr attackSpeed 150
attr attackStart 30
attr attacker 4
attr beaconInterval 0.1
attr configname SinusoidalAccInjectionAttack
attr controller 1
attr datetime 20171201-16:41:30
attr experiment SinusoidalAccInjectionAttack
attr fakeAcc "(4 == 4)"
attr fakePos "(4 == 2)"
attr fakeSpeed "(4 == 3)"
attr inifile omnetpp_1.ini
attr iterationvars "$attacker=4, $attackSpeed=150, $attackPos=7, $attackAcc=-30, $leaderSpeed=50, $controller=1, $CACCSpacing=5, $sController=\"CACC\", $attackStart=30, $0=5, $1=0, $nCars=8, $platoonSize=8, $nLanes=1, $beaconInterval=0.1, $priority=2, $packetSize=200, $ploegH=0.5, $leaderHeadway=1.2, $fakeSpeed=(4 == 3), $fakeAcc=(4 == 4), $fakePos=(4 == 2)"
attr iterationvarsf attacker=4,attackSpeed=150,attackPos=7,attackAcc=-30,leaderSpeed=50,controller=1,CACCSpacing=5,sController=CACC,attackStart=30,5,0,nCars=8,platoonSize=8,nLanes=1,beaconInterval=0.1,priority=2,packetSize=200,ploegH=0.5,leaderHeadway=1.2,fakeSpeed=(4_==_3),fakeAcc=(4_==_4),fakePos=(4_==_2)-
attr leaderHeadway 1.2
attr leaderSpeed 50
attr measurement "$attacker=4, $attackSpeed=150, $attackPos=7, $attackAcc=-30, $leaderSpeed=50, $controller=1, $CACCSpacing=5, $sController=\"CACC\", $attackStart=30, $0=5, $1=0, $nCars=8, $platoonSize=8, $nLanes=1, $beaconInterval=0.1, $priority=2, $packetSize=200, $ploegH=0.5, $leaderHeadway=1.2, $fakeSpeed=(4 == 3), $fakeAcc=(4 == 4), $fakePos=(4 == 2)"
attr nCars 8
attr nLanes 1
attr network scenario
attr packetSize 200
attr platoonSize 8
attr ploegH 0.5
attr priority 2
attr processid 2512
attr repetition 1
attr replication #1
attr resultdir results
attr runnumber 1
attr sController "\"CACC\""
attr seedset 1
param **.coreDebug false
param **.debug false
param **.headway 0.1s
param **.numberOfCars 8
param **.numberOfCarsPerPlatoon 8
param **.numberOfLanes 1
param **.numericController 1
param **.traffic.nCars 8
param **.traffic.nLanes 1
param **.traffic.platoonInsertDistance 5m
param **.traffic.platoonInsertHeadway 0s
param **.traffic.platoonInsertSpeed 50kmph
param **.traffic.platoonInsertTime "1 s"
param **.traffic.platoonLeaderHeadway 1.2s
param **.traffic.platoonSize 8
param **.traffic.platooningVType "\"vtypeauto\""
param **.traffic_type "\"PlatoonsTrafficManager\""
param *.**.nic.mac1609_4.bitrate 6Mbps
param *.**.nic.mac1609_4.txPower 100mW
param *.**.nic.mac1609_4.useServiceChannel false
param *.**.nic.phy80211p.analogueModels "xmldoc(\"config.xml\")"
param *.**.nic.phy80211p.decider "xmldoc(\"config.xml\")"
param *.**.nic.phy80211p.maxTXPower 100mW
param *.**.nic.phy80211p.sensitivity -94dBm
param *.**.nic.phy80211p.thermalNoise -95dBm
param *.**.nic.phy80211p.usePropagationDelay true
param *.**.nic.phy80211p.useThermalNoise true
param *.annotations.draw false
param *.connectionManager.alpha 2.0
param *.connectionManager.carrierFrequency "5.890e9 Hz"
param *.connectionManager.pMax 100mW
param *.connectionManager.sat -94dBm
param *.connectionManager.sendDirect true
param *.manager.autoShutdown true
param *.manager.commandLine "\"sumo --remote-port $port --seed $seed --configuration-file $configFile\""
param *.manager.configFile "\"./sumocfg/freeway.sumo.cfg\""
param *.manager.host "\"localhost\""
param *.manager.margin 25
param *.manager.moduleDisplayString "\"\""
param *.manager.moduleName "\"node\""
param *.manager.moduleType "\"Car\""
param *.manager.updateInterval 0.01s
param *.node[*].appl.attackStart 30s
param *.node[*].appl.attackerType 4
param *.node[*].appl.simulationDuration "60 s"
param *.node[*].appl_type "\"SimplePlatooningApp\""
param *.node[*].helper.nCars 8
param *.node[*].helper.nLanes 1
param *.node[*].helper.platoonSize 8
param *.node[*].helper_type "\"PositionHelper\""
param *.node[*].mobility.x 0
param *.node[*].mobility.y 0
param *.node[*].mobility.z 1.895
param *.node[*].prot.attackStart 30s
param *.node[*].prot.attackerType 4
param *.node[*].prot.attackingNode 3
param *.node[*].prot.beaconingInterval 0.1s
param *.node[*].prot.fakeAcc "(4 == 4)"
param *.node[*].prot.fakePos "(4 == 2)"
param *.node[*].prot.fakeSpeed "(4 == 3)"
param *.node[*].prot.maliciousAcc "-30 mpss"
param *.node[*].prot.maliciousSpeed 150kmph
param *.node[*].prot.packetSize 200
param *.node[*].prot.priority 2
param *.node[*].prot.shiftX "7 m"
param *.node[*].prot.useControllerAcceleration true
param *.node[*].protocol_type "\"SimplePlatooningBeaconing\""
param *.node[*].scenario.accHeadway 0.1s
param *.node[*].scenario.caccC1 0.5
param *.node[*].scenario.caccOmegaN "0.2 Hz"
param *.node[*].scenario.caccSpacing 5m
param *.node[*].scenario.caccXi 1
param *.node[*].scenario.controller "\"CACC\""
param *.node[*].scenario.engineTau "0.5 s"
param *.node[*].scenario.leaderHeadway 1.2s
param *.node[*].scenario.leaderSpeed 50kmph
param *.node[*].scenario.ploegH 0.5s
param *.node[*].scenario.ploegKd 0.7
param *.node[*].scenario.ploegKp 0.2
param *.node[*].scenario.useRealisticEngine false
param *.node[*].scenario_type "\"SinusoidalScenario\""
param *.node[*].unicast.packetLossRate 0
param *.obstacles.debug false
param *.playgroundSizeX 65000m
param *.playgroundSizeY 25000m
param *.playgroundSizeZ 50m
param *.world.use2D false
param *.world.useTorus false

vector 0  scenario.node[0].appl  distance  ETV
vector 1  scenario.node[0].appl  relativeSpeed  ETV
vector 2  scenario.node[0].appl  nodeId  ETV
vector 6  scenario.node[0].appl  acceleration  ETV
vector 7  scenario.node[0].appl  controllerAcceleration  ETV
vector 3  scenario.node[0].appl  speed  ETV
vector 4  scenario.node[0].appl  posx  ETV
vector 5  scenario.node[0].appl  posy  ETV
vector 22  scenario.node[1].appl  distance  ETV
vector 23  scenario.node[1].appl  relativeSpeed  ETV
vector 24  scenario.node[1].appl  nodeId  ETV
vector 28  scenario.node[1].appl  acceleration  ETV
vector 29  scenario.node[1].appl  controllerAcceleration  ETV
vector 25  scenario.node[1].appl  speed  ETV
vector 26  scenario.node[1].appl  posx  ETV
vector 27  scenario.node[1].appl  posy  ETV
vector 44  scenario.node[2].appl  distance  ETV
vector 45  scenario.node[2].appl  relativeSpeed  ETV
vector 46  scenario.node[2].appl  nodeId  ETV
vector 50  scenario.node[2].appl  acceleration  ETV
vector 51  scenario.node[2].appl  controllerAcceleration  ETV
vector 47  scenario.node[2].appl  speed  ETV
vector 48  scenario.node[2].appl  posx  ETV
vector 49  scenario.node[2].appl  posy  ETV
vector 66  scenario.node[3].appl  distance  ETV
vector 67  scenario.node[3].appl  relativeSpeed  ETV
vector 68  scenario.node[3].appl  nodeId  ETV
vector 72  scenario.node[3].appl  acceleration  ETV
vector 73  scenario.node[3].appl  controllerAcceleration  ETV
vector 69  scenario.node[3].appl  speed  ETV
vector 70  scenario.node[3].appl  posx  ETV
vector 71  scenario.node[3].appl  posy  ETV
vector 88  scenario.node[4].appl  distance  ETV
vector 89  scenario.node[4].appl  relativeSpeed  ETV
vector 90  scenario.node[4].appl  nodeId  ETV
vector 94  scenario.node[4].appl  acceleration  ETV
vector 95  scenario.node[4].appl  controllerAcceleration  ETV
vector 91  scenario.node[4].appl  speed  ETV
vector 92  scenario.node[4].appl  posx  ETV
vector 93  scenario.node[4].appl  posy  ETV
vector 110  scenario.node[5].appl  distance  ETV
vector 111  scenario.node[5].appl  relativeSpeed  ETV
vector 112  scenario.node[5].appl  nodeId  ETV
vector 116  scenario.node[5].appl  acceleration  ETV
vector 117  scenario.node[5].appl  controllerAcceleration  ETV
vector 113  scenario.node[5].appl  speed  ETV
vector 114  scenario.node[5].appl  posx  ETV
vector 115  scenario.node[5].appl  posy  ETV
vector 132  scenario.node[6].appl  distance  ETV
vector 133  scenario.node[6].appl  relativeSpeed  ETV
vector 134  scenario.node[6].appl  nodeId  ETV
vector 138  scenario.node[6].appl  acceleration  ETV
vector 139  scenario.node[6].appl  controllerAcceleration  ETV
vector 135  scenario.node[6].appl  speed  ETV
vector 136  scenario.node[6].appl  posx  ETV
vector 137  scenario.node[6].appl  posy  ETV
vector 154  scenario.node[7].appl  distance  ETV
vector 155  scenario.node[7].appl  relativeSpeed  ETV
vector 156  scenario.node[7].appl  nodeId  ETV
vector 160  scenario.node[7].appl  acceleration  ETV
vector 161  scenario.node[7].appl  controllerAcceleration  ETV
vector 157  scenario.node[7].appl  speed  ETV
vector 158  scenario.node[7].appl  posx  ETV
vector 159  scenario.node[7].appl  posy  ETV
vector 58  scenario.node[2].prot  frontDelay  ETV
vector 56  scenario.node[2].prot  frontDelayId  ETV
vector 102  scenario.node[4].prot  frontDelay  ETV
vector 100  scenario.node[4].prot  frontDelayId  ETV
vector 146  scenario.node[6].prot  frontDelay  ETV
vector 144  scenario.node[6].prot  frontDelayId  ETV
vector 168  scenario.node[7].prot  frontDelay  ETV
vector 166  scenario.node[7].prot  frontDelayId  ETV
vector 124  scenario.node[5].prot  frontDelay  ETV
vector 122  scenario.node[5].prot  frontDelayId  ETV
vector 35  scenario.node[1].prot  leaderDelay  ETV
vector 33  scenario.node[1].prot  leaderDelayId  ETV
vector 36  scenario.node[1].prot  frontDelay  ETV
vector 34  scenario.node[1].prot  frontDelayId  ETV
vector 57  scenario.node[2].prot  leaderDelay  ETV
vector 55  scenario.node[2].prot  leaderDelayId  ETV
vector 79  scenario.node[3].prot  leaderDelay  ETV
vector 77  scenario.node[3].prot  leaderDelayId  ETV
vector 101  scenario.node[4].prot  leaderDelay  ETV
vector 99  scenario.node[4].prot  leaderDelayId  ETV
vector 123  scenario.node[5].prot  leaderDelay  ETV
vector 121  scenario.node[5].prot  leaderDelayId  ETV
vector 145  scenario.node[6].prot  leaderDelay  ETV
vector 143  scenario.node[6].prot  leaderDelayId  ETV
vector 167  scenario.node[7].prot  leaderDelay  ETV
vector 165  scenario.node[7].prot  leaderDelayId  ETV
vector 80  scenario.node[3].prot  frontDelay  ETV
vector 78  scenario.node[3].prot  frontDelayId  ETV
vector 8  scenario.node[0].prot  nodeId  ETV
vector 9  scenario.node[0].prot  busyTime  ETV
vector 10  scenario.node[0].prot  collisions  ETV
vector 30  scenario.node[1].prot  nodeId  ETV
vector 31  scenario.node[1].prot  busyTime  ETV
vector 32  scenario.node[1].prot  collisions  ETV
vector 52  scenario.node[2].prot  nodeId  ETV
vector 53  scenario.node[2].prot  busyTime  ETV
vector 54  scenario.node[2].prot  collisions  ETV
vector 74  scenario.node[3].prot  nodeId  ETV
vector 75  scenario.node[3].prot  busyTime  ETV
vector 76  scenario.node[3].prot  collisions  ETV
vector 96  scenario.node[4].prot  nodeId  ETV
vector 97  scenario.node[4].prot  busyTime  ETV
vector 98  scenario.node[4].prot  collisions  ETV
vector 118  scenario.node[5].prot  nodeId  ETV
vector 119  scenario.node[5].prot  busyTime  ETV
vector 120  scenario.node[5].prot  collisions  ETV
vector 140  scenario.node[6].prot  nodeId  ETV
vector 141  scenario.node[6].prot  busyTime  ETV
vector 142  scenario.node[6].prot  collisions  ETV
vector 162  scenario.node[7].prot  nodeId  ETV
vector 163  scenario.node[7].prot  busyTime  ETV
vector 164  scenario.node[7].prot  collisions  ETV
7	11068 7274 232 170319 1.11 31.61 306 -1.5 1.5 10.82236445848 484.26089734565
6	18342 9586 232 170319 1.11 31.61 306 -1.472274679513 1.4513241957731 2.8651895991949 323.16681706243
5	27928 6138 232 170319 1.11 31.61 306 36.55 36.55 11184.3 408786.165
4	34066 9165 232 170319 1.11 31.61 306 96.994281387196 523.65016094805 95442.337386286 34461401.815447
3	43231 9167 232 170319 1.11 31.61 306 12.59914837223 15.853603639796 4280.5374480194 60104.418199732
1	52398 4914 232 170319 1.11 31.61 306 0 0 0 0
0	57312 5220 232 170319 1.11 31.61 306 -1 -1 -306 306
2	62532 4914 232 170319 1.11 31.61 306 0 0 0 0
10	67446 423 5168 166900 2 31 30 0 0 0 0
9	67869 574 5168 166900 2 31 30 0.023297 0.02625 0.784547 0.020525562709
8	68443 393 5168 166900 2 31 30 0 0 0 0
29	68836 9828 233 170320 1.11 31.61 306 -1.555555192602 1.5570065793937 9.4424846164588 503.89922888641
28	78664 9889 233 170320 1.11 31.61 306 -1.4954736405162 1.4760592284102 1.5250499067122 329.8190776777
27	88553 6444 233 170320 1.11 31.61 306 36.55 36.55 11184.3 408786.165
26	94997 9474 233 170320 1.11 31.61 306 87.994281387329 514.61483988674 92682.462709374 32765733.969275
25	104471 9471 233 170320 1.11 31.61 306 12.582739554075 15.862412181803 4280.1372251134 60098.825308849
23	113942 10197 233 170320 1.11 31.61 306 -0.12424054910308 0.12345091765668 0.37157101003529 2.4556937132545
22	124139 9473 233 170320 1.11 31.61 306 4.877619709558 5.1830415406085 1535.8666724539 7710.8466456226
24	133612 5220 233 170320 1.11 31.61 306 1 1 306 306
36	138832 12116 1238 170212 1.297801900626 31.597809637239 304 0.099998479442 0.100011486081 30.400006216947 3.0400012487531
35	150948 12116 1238 170212 1.297801900626 31.597809637239 304 0.099998479442 0.100011486081 30.400006216947 3.0400012487531
34	163064 8193 1238 170212 1.297801900626 31.597809637239 304 1 1 304 304
33	171257 8193 1238 170212 1.297801900626 31.597809637239 304 1 1 304 304
32	179450 423 5169 166901 2 31 30 0 0 0 0
31	179873 604 5169 166901 2 31 30 0.023297 0.02625 0.784547 0.020525562709
30	180477 423 5169 166901 2 31 30 1 1 30 30
51	180900 9827 234 170321 1.11 31.61 306 -1.5092135974097 1.5122039406897 8.6020468571485 477.28560864593
50	190727 9896 234 170321 1.11 31.61 306 -1.4841297326063 1.4672918318949 1.3990181455467 324.8657867089
49	200623 6444 234 170321 1.11 31.61 306 36.55 36.55 11184.3 408786.165
48	207067 9471 234 170321 1.11 31.61 306 78.994281387329 505.61736961029 89925.370178429 31120500.199527
47	216538 9469 234 170321 1.11 31.61 306 12.59309520908 15.851008825246 4280.1584153113 60096.061268115
45	226007 10574 234 170321 1.11 31.61 306 -0.010773795666012 0.012241039882397 -0.036440697025441 0.013304818942364
44	236581 9447 234 170321 1.11 31.61 306 4.9921308220553 5.0331337372167 1533.0929547495 7680.9964450542
46	246028 5220 234 170321 1.11 31.61 306 2 2 612 1224
58	251248 12150 832 170357 1.212435510355 31.612441727274 305 0.099998479432 0.100011487425 30.500004697253 3.0500009448167
57	263398 12128 1244 170218 1.297801930647 31.59780966725 304 0.099998479438 0.100011486083 30.400006216937 3.0400012487511
56	275526 8222 832 170357 1.212435510355 31.612441727274 305 2 2 610 1220
55	283748 8201 1244 170218 1.297801930647 31.59780966725 304 2 2 608 1216
54	291949 423 5170 166902 2 31 30 0 0 0 0
53	292372 604 5170 166902 2 31 30 0.023296 0.02625 0.784546 0.020525516116
52	292976 423 5170 166902 2 31 30 2 2 60 120
73	293399 9806 235 170322 1.11 31.61 306 -1.4954488815774 1.4986508547754 8.1954986892744 463.03415276711
72	303205 9872 235 170322 1.11 31.61 306 -1.4697266269408 1.4522492500257 1.1355722484302 318.27033688465
71	313077 6444 235 170322 1.11 31.61 306 36.55 36.55 11184.3 408786.165
70	319521 9472 235 170322 1.11 31.61 306 69.994281387329 496.62076617458 87168.474683484 29525214.38876
69	328993 9463 235 170322 1.11 31.61 306 12.60788621176 15.836008806661 4280.1833820799 60092.565252487
67	338456 10441 235 170322 1.11 31.61 306 -0.02193620377763 0.021653877994089 -0.038956950022516 0.040307631145272
66	348897 9448 235 170322 1.11 31.61 306 4.9809316343225 5.0520779269416 1532.8959942797 7679.0881810861
68	358345 5220 235 170322 1.11 31.61 306 3 3 918 2754
80	363565 12130 1312 170281 1.307223960668 31.607218697259 304 0.099998479434 0.10001148239 30.399993216925 3.0399986486191
79	375695 12137 1250 170224 1.297801960667 31.597809697258 304 0.099998479435 0.100011486091 30.400006216925 3.0400012487487
78	387832 8200 1312 170281 1.307223960668 31.607218697259 304 3 3 912 2736
77	396032 8204 1250 170224 1.297801960667 31.597809697258 304 3 3 912 2736
76	404236 423 5171 166903 2 31 30 0 0 0 0
75	404659 604 5171 166903 2 31 30 0.023297 0.02625 0.784547 0.020525562709
74	405263 423 5171 166903 2 31 30 3 3 90 270
95	405686 9839 236 170323 1.11 31.61 306 -14.3263228829 1.5060862511444 -201.77491037866 2673.1346320181
94	415525 9767 236 170323 1.11 31.61 306 -9 1.4503898338162 -140.60030439458 1388.2675141832
93	425292 6444 236 170323 1.11 31.61 306 36.55 36.55 11184.3 408786.165
92	431736 9465 236 170323 1.11 31.61 306 60.994281387329 478.09752964545 84362.45564247 27932026.97142
91	441201 9485 236 170323 1.11 31.61 306 0.23394481915491 15.831996514873 4180.0662621427 58341.992740771
89	450686 10384 236 170323 1.11 31.61 306 -0.013223228742271 13.69321207985 100.10576421473 931.3714422418
88	461070 9448 236 170323 1.11 31.61 306 4.9999999953162 14.249092659415 1580.0166986155 8428.7134074537
90	470518 5220 236 170323 1.11 31.61 306 4 4 1224 4896
102	475738 12464 902 170439 1.235039570397 31.635045820005 305 0.099998479478 0.100011491953 30.500004729942 3.0500009513545
101	488202 12430 1256 170230 1.297801990688 31.59780975813 304 0.099998479469 0.100011490127 30.400006247776 3.040001254919
100	500632 8539 902 170439 1.235039570397 31.635045820005 305 4 4 1220 4880
99	509171 8201 1256 170230 1.297801990688 31.59780975813 304 4 4 1216 4864
98	517372 423 5172 166904 2 31 30 0 0 0 0
97	517795 604 5172 166904 2 31 30 0.023297 0.02625 0.784547 0.020525562709
96	518399 423 5172 166904 2 31 30 4 4 120 480
139	518822 10161 238 170325 1.11 31.61 306 -2.5660013486317 1.5046152425958 -50.829730894812 523.50323955722
138	528983 10205 238 170325 1.11 31.61 306 -2.326050531199 1.4432664548902 -39.798239651186 351.96396039163
137	539188 6750 238 170325 1.11 31.61 306 36.55 36.55 11184.3 408786.165
136	545938 9772 238 170325 1.11 31.61 306 42.994283294678 467.28308089319 78887.928782333 25026872.764085
135	555710 9777 238 170325 1.11 31.61 306 10.01770641939 15.821388946288 4255.4020850052 59487.357447332
133	565487 10670 238 170325 1.11 31.61 306 -3.7194992094162 0.023301935128034 -25.83494229583 66.389531395034
132	576157 9748 238 170325 1.11 31.61 306 2.5473075763393 5.0188540657871 1520.3509786216 7572.4322255423
134	585905 5526 238 170325 1.11 31.61 306 6 6 1836 11016
146	591431 12460 970 170501 1.248712630439 31.648705855284 305 0.099998479425 0.100011482458 30.499991705179 3.0499983462722
145	603891 12407 1268 170242 1.29780205073 31.597809794856 304 0.099998479432 0.100011487209 30.40000622446 3.0400012502557
144	616298 8526 970 170501 1.248712630439 31.648705855284 305 6 6 1830 10980
143	624824 8494 1268 170242 1.29780205073 31.597809794856 304 6 6 1824 10944
142	633318 453 5174 166906 2 31 30 0 0 0 0
141	633771 634 5174 166906 2 31 30 0.023297 0.02625 0.784547 0.020525562709
140	634405 453 5174 166906 2 31 30 6 6 180 1080
161	634858 10169 239 170326 1.11 31.61 306 -1.509393506231 1.5126459099554 -23.661485412299 446.85485558181
160	645027 10227 239 170326 1.11 31.61 306 -1.4619692834163 1.4451435686761 -20.172422789261 303.71498799158
159	655254 6750 239 170326 1.11 31.61 306 36.55 36.55 11184.3 408786.165
158	662004 9774 239 170326 1.11 31.61 306 33.994282817841 459.43507725394 76137.173691237 23635213.40572
157	671778 9778 239 170326 1.11 31.61 306 11.905241915238 15.823091754854 4267.5968196498 59767.882530598
155	681556 10678 239 170326 1.11 31.61 306 -1.8642749905355 0.024254033984711 -11.796752248097 15.241629469214
154	692234 9782 239 170326 1.11 31.61 306 3.8857543491669 5.0179694510722 1526.9989857883 7623.6530140018
156	702016 5526 239 170326 1.11 31.61 306 7 7 2142 14994
168	707542 12464 1040 170571 1.26389366046 31.663886881136 305 0.09999847942 0.100011482459 30.49999170101 3.0499983454384
167	720006 12418 1274 170248 1.29780208075 31.59780982116 304 0.099998479432 0.100011486664 30.400006220744 3.0400012495125
166	732424 8526 1040 170571 1.26389366046 31.663886881136 305 7 7 2135 14945
165	740950 8498 1274 170248 1.29780208075 31.59780982116 304 7 7 2128 14896
164	749448 453 5175 166907 2 31 30 0 0 0 0
163	749901 634 5175 166907 2 31 30 0.023297 0.02625 0.784547 0.020525562709
162	750535 453 5175 166907 2 31 30 7 7 210 1470
110	750988 9792 237 170603 1.11 31.67 307 0 5.0458383605621 1507.6825979731 7499.4839060079
111	760780 10669 237 170603 1.11 31.67 307 -5.9241854943673 0.020930929975467 -53.203193075732 230.04783659698
112	771449 5545 237 170603 1.11 31.67 307 5 5 1535 7675
113	776994 9810 237 170603 1.11 31.67 307 5.9448206767221 15.829041182727 4234.725601404 59012.585432256
114	786804 9815 237 170603 1.11 31.67 307 51.994283294678 474.11619852118 82105.86353339 26686009.514195
115	796619 6773 237 170603 1.11 31.67 307 36.55 36.55 11220.85 410122.0675
116	803392 10255 237 170603 1.11 31.67 307 -5.219785874419 1.4484846957759 -83.650512376268 632.80307150547
117	813647 10198 237 170603 1.11 31.67 307 -6.643858064592 1.5300606513299 -111.84299330709 1005.0847853496
118	823845 453 5173 166905 2 31 30 5 5 150 750
119	824298 634 5173 166905 2 31 30 0.023297 0.02625 0.784547 0.020525562709
120	824932 453 5173 166905 2 31 30 0 0 0 0
121	825385 8510 1262 170236 1.297802020709 31.597809773017 304 5 5 1520 7600
122	833895 8503 1178 170146 1.297388780543 31.597383470974 304 5 5 1520 7600
123	842398 12434 1262 170236 1.297802020709 31.597809773017 304 0.099998479443 0.100011488321 30.400006232642 3.0400012518921
124	854832 12430 1178 170146 1.297388780543 31.597383470974 304 0.099998477727 0.100011482451 30.399993170765 3.0399986393872
