file 1680777 1512143366                                         
version 2
run SinusoidalAccInjectionAttack-91-20171201-16:48:55-76125
attr CACCSpacing 20
attr attackAcc -10
attr attackPos 7
attr attackSpeed 150
attr attackStart 30
attr attacker 4
attr beaconInterval 0.1
attr configname SinusoidalAccInjectionAttack
attr controller 2
attr datetime 20171201-16:48:55
attr experiment SinusoidalAccInjectionAttack
attr fakeAcc "(4 == 4)"
attr fakePos "(4 == 2)"
attr fakeSpeed "(4 == 3)"
attr inifile omnetpp_91.ini
attr iterationvars "$attacker=4, $attackSpeed=150, $attackPos=7, $attackAcc=-10, $leaderSpeed=100, $controller=2, $CACCSpacing=20, $sController=\"PLOEG\", $attackStart=30, $0=2, $1=0.5, $nCars=8, $platoonSize=8, $nLanes=1, $beaconInterval=0.1, $priority=2, $packetSize=200, $ploegH=0.5, $leaderHeadway=1.2, $fakeSpeed=(4 == 3), $fakeAcc=(4 == 4), $fakePos=(4 == 2)"
attr iterationvarsf attacker=4,attackSpeed=150,attackPos=7,attackAcc=-10,leaderSpeed=100,controller=2,CACCSpacing=20,sController=PLOEG,attackStart=30,2,0.5,nCars=8,platoonSize=8,nLanes=1,beaconInterval=0.1,priority=2,packetSize=200,ploegH=0.5,leaderHeadway=1.2,fakeSpeed=(4_==_3),fakeAcc=(4_==_4),fakePos=(4_==_2)-
attr leaderHeadway 1.2
attr leaderSpeed 100
attr measurement "$attacker=4, $attackSpeed=150, $attackPos=7, $attackAcc=-10, $leaderSpeed=100, $controller=2, $CACCSpacing=20, $sController=\"PLOEG\", $attackStart=30, $0=2, $1=0.5, $nCars=8, $platoonSize=8, $nLanes=1, $beaconInterval=0.1, $priority=2, $packetSize=200, $ploegH=0.5, $leaderHeadway=1.2, $fakeSpeed=(4 == 3), $fakeAcc=(4 == 4), $fakePos=(4 == 2)"
attr nCars 8
attr nLanes 1
attr network scenario
attr packetSize 200
attr platoonSize 8
attr ploegH 0.5
attr priority 2
attr processid 76125
attr repetition 1
attr replication #1
attr resultdir results
attr runnumber 91
attr sController "\"PLOEG\""
attr seedset 1
param **.coreDebug false
param **.debug false
param **.headway 0.1s
param **.numberOfCars 8
param **.numberOfCarsPerPlatoon 8
param **.numberOfLanes 1
param **.numericController 2
param **.traffic.nCars 8
param **.traffic.nLanes 1
param **.traffic.platoonInsertDistance 2m
param **.traffic.platoonInsertHeadway 0.5s
param **.traffic.platoonInsertSpeed 100kmph
param **.traffic.platoonInsertTime "1 s"
param **.traffic.platoonLeaderHeadway 1.2s
param **.traffic.platoonSize 8
param **.traffic.platooningVType "\"vtypeauto\""
param **.traffic_type "\"PlatoonsTrafficManager\""
param *.**.nic.mac1609_4.bitrate 6Mbps
param *.**.nic.mac1609_4.txPower 100mW
param *.**.nic.mac1609_4.useServiceChannel false
param *.**.nic.phy80211p.analogueModels "xmldoc(\"config.xml\")"
param *.**.nic.phy80211p.decider "xmldoc(\"config.xml\")"
param *.**.nic.phy80211p.maxTXPower 100mW
param *.**.nic.phy80211p.sensitivity -94dBm
param *.**.nic.phy80211p.thermalNoise -95dBm
param *.**.nic.phy80211p.usePropagationDelay true
param *.**.nic.phy80211p.useThermalNoise true
param *.annotations.draw false
param *.connectionManager.alpha 2.0
param *.connectionManager.carrierFrequency "5.890e9 Hz"
param *.connectionManager.pMax 100mW
param *.connectionManager.sat -94dBm
param *.connectionManager.sendDirect true
param *.manager.autoShutdown true
param *.manager.commandLine "\"sumo --remote-port $port --seed $seed --configuration-file $configFile\""
param *.manager.configFile "\"./sumocfg/freeway.sumo.cfg\""
param *.manager.host "\"localhost\""
param *.manager.margin 25
param *.manager.moduleDisplayString "\"\""
param *.manager.moduleName "\"node\""
param *.manager.moduleType "\"Car\""
param *.manager.updateInterval 0.01s
param *.node[*].appl.attackStart 30s
param *.node[*].appl.attackerType 4
param *.node[*].appl.simulationDuration "60 s"
param *.node[*].appl_type "\"SimplePlatooningApp\""
param *.node[*].helper.nCars 8
param *.node[*].helper.nLanes 1
param *.node[*].helper.platoonSize 8
param *.node[*].helper_type "\"PositionHelper\""
param *.node[*].mobility.x 0
param *.node[*].mobility.y 0
param *.node[*].mobility.z 1.895
param *.node[*].prot.attackStart 30s
param *.node[*].prot.attackerType 4
param *.node[*].prot.attackingNode 3
param *.node[*].prot.beaconingInterval 0.1s
param *.node[*].prot.fakeAcc "(4 == 4)"
param *.node[*].prot.fakePos "(4 == 2)"
param *.node[*].prot.fakeSpeed "(4 == 3)"
param *.node[*].prot.maliciousAcc "-10 mpss"
param *.node[*].prot.maliciousSpeed 150kmph
param *.node[*].prot.packetSize 200
param *.node[*].prot.priority 2
param *.node[*].prot.shiftX "7 m"
param *.node[*].prot.useControllerAcceleration true
param *.node[*].protocol_type "\"SimplePlatooningBeaconing\""
param *.node[*].scenario.accHeadway 0.1s
param *.node[*].scenario.caccC1 0.5
param *.node[*].scenario.caccOmegaN "0.2 Hz"
param *.node[*].scenario.caccSpacing 20m
param *.node[*].scenario.caccXi 1
param *.node[*].scenario.controller "\"PLOEG\""
param *.node[*].scenario.engineTau "0.5 s"
param *.node[*].scenario.leaderHeadway 1.2s
param *.node[*].scenario.leaderSpeed 100kmph
param *.node[*].scenario.ploegH 0.5s
param *.node[*].scenario.ploegKd 0.7
param *.node[*].scenario.ploegKp 0.2
param *.node[*].scenario.useRealisticEngine false
param *.node[*].scenario_type "\"SinusoidalScenario\""
param *.node[*].unicast.packetLossRate 0
param *.obstacles.debug false
param *.playgroundSizeX 65000m
param *.playgroundSizeY 25000m
param *.playgroundSizeZ 50m
param *.world.use2D false
param *.world.useTorus false

vector 0  scenario.node[0].appl  distance  ETV
vector 1  scenario.node[0].appl  relativeSpeed  ETV
vector 2  scenario.node[0].appl  nodeId  ETV
vector 6  scenario.node[0].appl  acceleration  ETV
vector 7  scenario.node[0].appl  controllerAcceleration  ETV
vector 3  scenario.node[0].appl  speed  ETV
vector 4  scenario.node[0].appl  posx  ETV
vector 5  scenario.node[0].appl  posy  ETV
vector 22  scenario.node[1].appl  distance  ETV
vector 23  scenario.node[1].appl  relativeSpeed  ETV
vector 24  scenario.node[1].appl  nodeId  ETV
vector 28  scenario.node[1].appl  acceleration  ETV
vector 29  scenario.node[1].appl  controllerAcceleration  ETV
vector 25  scenario.node[1].appl  speed  ETV
vector 26  scenario.node[1].appl  posx  ETV
vector 27  scenario.node[1].appl  posy  ETV
vector 44  scenario.node[2].appl  distance  ETV
vector 45  scenario.node[2].appl  relativeSpeed  ETV
vector 46  scenario.node[2].appl  nodeId  ETV
vector 50  scenario.node[2].appl  acceleration  ETV
vector 51  scenario.node[2].appl  controllerAcceleration  ETV
vector 47  scenario.node[2].appl  speed  ETV
vector 48  scenario.node[2].appl  posx  ETV
vector 49  scenario.node[2].appl  posy  ETV
vector 66  scenario.node[3].appl  distance  ETV
vector 67  scenario.node[3].appl  relativeSpeed  ETV
vector 68  scenario.node[3].appl  nodeId  ETV
vector 72  scenario.node[3].appl  acceleration  ETV
vector 73  scenario.node[3].appl  controllerAcceleration  ETV
vector 69  scenario.node[3].appl  speed  ETV
vector 70  scenario.node[3].appl  posx  ETV
vector 71  scenario.node[3].appl  posy  ETV
vector 88  scenario.node[4].appl  distance  ETV
vector 89  scenario.node[4].appl  relativeSpeed  ETV
vector 90  scenario.node[4].appl  nodeId  ETV
vector 94  scenario.node[4].appl  acceleration  ETV
vector 95  scenario.node[4].appl  controllerAcceleration  ETV
vector 91  scenario.node[4].appl  speed  ETV
vector 92  scenario.node[4].appl  posx  ETV
vector 93  scenario.node[4].appl  posy  ETV
vector 110  scenario.node[5].appl  distance  ETV
vector 111  scenario.node[5].appl  relativeSpeed  ETV
vector 112  scenario.node[5].appl  nodeId  ETV
vector 116  scenario.node[5].appl  acceleration  ETV
vector 117  scenario.node[5].appl  controllerAcceleration  ETV
vector 113  scenario.node[5].appl  speed  ETV
vector 114  scenario.node[5].appl  posx  ETV
vector 115  scenario.node[5].appl  posy  ETV
vector 132  scenario.node[6].appl  distance  ETV
vector 133  scenario.node[6].appl  relativeSpeed  ETV
vector 134  scenario.node[6].appl  nodeId  ETV
vector 138  scenario.node[6].appl  acceleration  ETV
vector 139  scenario.node[6].appl  controllerAcceleration  ETV
vector 135  scenario.node[6].appl  speed  ETV
vector 136  scenario.node[6].appl  posx  ETV
vector 137  scenario.node[6].appl  posy  ETV
vector 154  scenario.node[7].appl  distance  ETV
vector 155  scenario.node[7].appl  relativeSpeed  ETV
vector 156  scenario.node[7].appl  nodeId  ETV
vector 160  scenario.node[7].appl  acceleration  ETV
vector 161  scenario.node[7].appl  controllerAcceleration  ETV
vector 157  scenario.node[7].appl  speed  ETV
vector 158  scenario.node[7].appl  posx  ETV
vector 159  scenario.node[7].appl  posy  ETV
vector 58  scenario.node[2].prot  frontDelay  ETV
vector 56  scenario.node[2].prot  frontDelayId  ETV
vector 102  scenario.node[4].prot  frontDelay  ETV
vector 100  scenario.node[4].prot  frontDelayId  ETV
vector 146  scenario.node[6].prot  frontDelay  ETV
vector 144  scenario.node[6].prot  frontDelayId  ETV
vector 168  scenario.node[7].prot  frontDelay  ETV
vector 166  scenario.node[7].prot  frontDelayId  ETV
vector 124  scenario.node[5].prot  frontDelay  ETV
vector 122  scenario.node[5].prot  frontDelayId  ETV
vector 35  scenario.node[1].prot  leaderDelay  ETV
vector 33  scenario.node[1].prot  leaderDelayId  ETV
vector 36  scenario.node[1].prot  frontDelay  ETV
vector 34  scenario.node[1].prot  frontDelayId  ETV
vector 57  scenario.node[2].prot  leaderDelay  ETV
vector 55  scenario.node[2].prot  leaderDelayId  ETV
vector 79  scenario.node[3].prot  leaderDelay  ETV
vector 77  scenario.node[3].prot  leaderDelayId  ETV
vector 101  scenario.node[4].prot  leaderDelay  ETV
vector 99  scenario.node[4].prot  leaderDelayId  ETV
vector 123  scenario.node[5].prot  leaderDelay  ETV
vector 121  scenario.node[5].prot  leaderDelayId  ETV
vector 145  scenario.node[6].prot  leaderDelay  ETV
vector 143  scenario.node[6].prot  leaderDelayId  ETV
vector 167  scenario.node[7].prot  leaderDelay  ETV
vector 165  scenario.node[7].prot  leaderDelayId  ETV
vector 80  scenario.node[3].prot  frontDelay  ETV
vector 78  scenario.node[3].prot  frontDelayId  ETV
vector 8  scenario.node[0].prot  nodeId  ETV
vector 9  scenario.node[0].prot  busyTime  ETV
vector 10  scenario.node[0].prot  collisions  ETV
vector 30  scenario.node[1].prot  nodeId  ETV
vector 31  scenario.node[1].prot  busyTime  ETV
vector 32  scenario.node[1].prot  collisions  ETV
vector 52  scenario.node[2].prot  nodeId  ETV
vector 53  scenario.node[2].prot  busyTime  ETV
vector 54  scenario.node[2].prot  collisions  ETV
vector 74  scenario.node[3].prot  nodeId  ETV
vector 75  scenario.node[3].prot  busyTime  ETV
vector 76  scenario.node[3].prot  collisions  ETV
vector 96  scenario.node[4].prot  nodeId  ETV
vector 97  scenario.node[4].prot  busyTime  ETV
vector 98  scenario.node[4].prot  collisions  ETV
vector 118  scenario.node[5].prot  nodeId  ETV
vector 119  scenario.node[5].prot  busyTime  ETV
vector 120  scenario.node[5].prot  collisions  ETV
vector 140  scenario.node[6].prot  nodeId  ETV
vector 141  scenario.node[6].prot  busyTime  ETV
vector 142  scenario.node[6].prot  collisions  ETV
vector 162  scenario.node[7].prot  nodeId  ETV
vector 163  scenario.node[7].prot  busyTime  ETV
vector 164  scenario.node[7].prot  collisions  ETV
7	11097 13860 232 328174 1.11 59.91 589 -1.5 1.5 -14.445974034379 993.24092368185
6	24957 18594 232 328174 1.11 59.91 589 -1.4722746794938 1.4513434175793 -12.50726914995 675.29835222675
5	43551 12081 232 328174 1.11 59.91 589 36.55 36.55 21527.95 786846.5725
4	55632 17907 232 328174 1.11 59.91 589 174.60539932224 1812.2548648647 585950.11689253 714706011.33161
3	73539 17905 232 328174 1.11 59.91 589 26.487965859734 29.742492528104 16403.83880962 457295.15275867
1	91444 9725 232 328174 1.11 59.91 589 0 0 0 0
0	101169 10314 232 328174 1.11 59.91 589 -1 -1 -589 589
2	111483 9725 232 328174 1.11 59.91 589 0 0 0 0
10	121208 858 5168 328662 2 60 59 0 0 0 0
9	122066 1154 5168 328662 2 60 59 0.023297 0.02625 1.545797 0.040508375209
8	123220 799 5168 328662 2 60 59 0 0 0 0
29	124019 19172 233 328175 1.11 59.91 589 -1.5589916558856 1.5498333179972 -12.740320235182 771.91975270595
28	143191 19250 233 328175 1.11 59.91 589 -1.4671855790706 1.399803691471 -6.3834669857034 541.56638387842
27	162441 12670 233 328175 1.11 59.91 589 36.55 36.55 21527.95 786846.5725
26	175111 18484 233 328175 1.11 59.91 589 154.71650619507 1792.8052115814 574210.75090822 691603593.83169
25	193595 18502 233 328175 1.11 59.91 589 26.648870388221 29.59432120793 16408.451031306 457471.46465524
23	212097 19568 233 328175 1.11 59.91 589 -0.76538756415643 0.75598109557232 -4.4871489946173 164.85158506575
22	231665 18499 233 328175 1.11 59.91 589 15.250244101491 16.862788430847 9383.4582287473 149602.39278634
24	250164 10314 233 328175 1.11 59.91 589 1 1 589 589
36	260478 23695 1238 328624 1.297802990264 59.997799744962 588 0.099999050877 0.100012513314 58.799995816172 5.879999168776
35	284173 23695 1238 328624 1.297802990264 59.997799744962 588 0.099999050877 0.100012513314 58.799995816172 5.879999168776
34	307868 16122 1238 328624 1.297802990264 59.997799744962 588 1 1 588 588
33	323990 16122 1238 328624 1.297802990264 59.997799744962 588 1 1 588 588
32	340112 858 5169 328663 2 60 59 0 0 0 0
31	340970 1213 5169 328663 2 60 59 0.023297 0.02625 1.545797 0.040508375209
30	342183 858 5169 328663 2 60 59 1 1 59 59
51	343041 19203 234 328176 1.11 59.91 589 -1.5234275127747 1.4627998918216 -5.9356787378578 589.22318983775
50	362244 19271 234 328176 1.11 59.91 589 -1.3731569640921 1.2582421862287 0.30545314099086 414.25925048787
49	381515 12670 234 328176 1.11 59.91 589 36.55 36.55 21527.95 786846.5725
48	394185 18479 234 328176 1.11 59.91 589 134.82761306763 1772.943782174 562472.03929129 668966833.40828
47	412664 18494 234 328176 1.11 59.91 589 26.792777535624 29.465996935042 16408.959509862 457424.70676349
45	431158 19583 234 328176 1.11 59.91 589 -0.69754178880244 0.65524923860574 -0.44464388678806 113.30441527792
44	450741 18487 234 328176 1.11 59.91 589 15.36266429694 16.74893533622 9382.7217864999 149546.38672734
46	469228 10314 234 328176 1.11 59.91 589 2 2 1178 2356
58	479542 23683 832 328218 1.212436127816 59.912432547514 588 0.099999051223 0.100012514877 58.799995481172 5.8799991017777
57	503225 23691 1244 328630 1.297803056606 59.997799811034 588 0.09999905099 0.100012513109 58.799995815902 5.879999168722
56	526916 16105 832 328218 1.212436127816 59.912432547514 588 2 2 1176 2352
55	543021 16116 1244 328630 1.297803056606 59.997799811034 588 2 2 1176 2352
54	559137 858 5170 328664 2 60 59 0 0 0 0
53	559995 1213 5170 328664 2 60 59 0.023296 0.02625 1.545796 0.040508328616
52	561208 858 5170 328664 2 60 59 2 2 118 236
73	562066 19300 235 328177 1.11 59.91 589 -1.4327596870974 1.3189838010202 1.0405216080669 452.35456458183
72	581366 19359 235 328177 1.11 59.91 589 -1.2644132254312 1.1141405606182 5.2695686839908 319.44895981033
71	600725 12670 235 328177 1.11 59.91 589 36.55 36.55 21527.95 786846.5725
70	613395 18467 235 328177 1.11 59.91 589 114.93872756958 1752.8066434243 550734.24823535 646800557.13707
69	631862 18484 235 328177 1.11 59.91 589 26.910331822287 29.364128657142 16406.647656035 457238.36608505
67	650346 19564 235 328177 1.11 59.91 589 -0.644985978782 0.58165310321223 2.3087992958344 87.180268989792
66	669910 18489 235 328177 1.11 59.91 589 15.426172909984 16.694472043767 9381.7448188613 149498.97992602
68	688399 10314 235 328177 1.11 59.91 589 3 3 1767 5301
80	698713 23690 1312 328707 1.307225122948 60.007221878053 588 0.09999905098 0.100012528642 58.799995816579 5.8799991688616
79	722403 23711 1250 328636 1.297803122949 59.997799878071 588 0.099999050977 0.100012512991 58.799995816596 5.8799991688608
78	746114 16118 1312 328707 1.307225122948 60.007221878053 588 3 3 1764 5292
77	762232 16125 1250 328636 1.297803122949 59.997799878071 588 3 3 1764 5292
76	778357 858 5171 328665 2 60 59 0 0 0 0
75	779215 1213 5171 328665 2 60 59 0.023297 0.02625 1.545797 0.040508375209
74	780428 858 5171 328665 2 60 59 3 3 177 531
95	781286 18173 236 328178 1.11 59.91 589 -7.217442313046 1.5 3.2988835138722 1175.2520358717
94	799459 19342 236 328178 1.11 59.91 589 -6.1463140406829 1.4999999828881 0.3311413734977 975.76501817189
93	818801 12670 236 328178 1.11 59.91 589 36.55 36.55 21527.95 786846.5725
92	831471 18511 236 328178 1.11 59.91 589 95.049842071533 1681.9952544556 524558.31578314 586715912.63081
91	849982 18511 236 328178 1.11 59.91 589 16.22435641329 32.022897512075 15897.239066793 435257.33375831
89	868493 19284 236 328178 1.11 59.91 589 -4.499649187994 12.115207850776 509.35589355544 6630.5871814588
88	887777 18487 236 328178 1.11 59.91 589 15.481566652164 85.629449961264 23809.744280422 1400366.3377942
90	906264 10314 236 328178 1.11 59.91 589 4 4 2356 9424
102	916578 24290 902 328300 1.2350402605 59.93503685092 588 0.099999051084 0.10001251444 58.799995651894 5.8799991359218
101	940868 24302 1256 328642 1.297803189291 59.997800114399 588 0.099999050867 0.100012511889 58.799995986582 5.879999202858
100	965170 16702 902 328300 1.2350402605 59.93503685092 588 4 4 2352 9408
99	981872 16118 1256 328642 1.297803189291 59.997800114399 588 4 4 2352 9408
98	997990 858 5172 328666 2 60 59 0 0 0 0
97	998848 1213 5172 328666 2 60 59 0.023297 0.02625 1.545797 0.040508375209
96	1000061 858 5172 328666 2 60 59 4 4 236 944
117	1000919 19913 237 328179 1.11 59.91 589 -6.3329461860894 1.5781358126556 0.019656440272568 1029.4042560984
116	1020832 19972 237 328179 1.11 59.91 589 -5.5817259619545 1.5428775522079 -2.2375284621422 877.11946236516
115	1040804 13259 237 328179 1.11 59.91 589 36.55 36.55 21527.95 786846.5725
114	1054063 19078 237 328179 1.11 59.91 589 75.160948944092 1662.2092996697 513074.97722095 566523427.46857
113	1073141 19085 237 328179 1.11 59.91 589 16.399306725635 31.944202482223 15898.179620045 435179.92130913
111	1092226 20148 237 328179 1.11 59.91 589 -2.8175151109887 0.75497383589336 -0.94386466569272 215.30483713356
110	1112374 19085 237 328179 1.11 59.91 589 10.212620947362 17.900652706125 9127.3573732583 142908.47673265
112	1131459 10903 237 328179 1.11 59.91 589 5 5 2945 14725
124	1142362 24304 1178 328558 1.297389724895 59.997386312159 588 0.099999048506 0.100012528458 58.799995648738 5.8799991352931
123	1166666 24292 1262 328648 1.297803255633 59.997800180467 588 0.099999050719 0.100012512042 58.799995986308 5.8799992028032
122	1190958 16724 1178 328558 1.297389724895 59.997386312159 588 5 5 2940 14700
121	1207682 16708 1262 328648 1.297803255633 59.997800180467 588 5 5 2940 14700
120	1224390 917 5173 328667 2 60 59 0 0 0 0
119	1225307 1272 5173 328667 2 60 59 0.023297 0.02625 1.545797 0.040508375209
118	1226579 917 5173 328667 2 60 59 5 5 295 1475
139	1227496 19959 238 328180 1.11 59.91 589 -5.7500813896638 1.6317920951207 -2.5563975745393 921.33197665019
138	1247455 20007 238 328180 1.11 59.91 589 -5.1626981630356 1.5862781449243 -3.4446948420882 800.30110302543
137	1267462 13259 238 328180 1.11 59.91 589 36.55 36.55 21527.95 786846.5725
136	1280721 19075 238 328180 1.11 59.91 589 55.272061538696 1642.4968118106 501591.22679105 546783006.49829
135	1299796 19082 238 328180 1.11 59.91 589 16.536249504016 31.86759175329 15899.90343413 435157.53751972
133	1318878 20123 238 328180 1.11 59.91 589 -2.5976727605157 0.77231467935597 -1.7014388006509 195.37833921809
132	1339001 19088 238 328180 1.11 59.91 589 10.286482731424 17.863773501701 9127.7849061797 142896.47058218
134	1358089 10903 238 328180 1.11 59.91 589 6 6 3534 21204
146	1368992 24298 970 328350 1.248713393184 59.948709982702 588 0.099999050814 0.100012526237 58.799995650992 5.8799991357439
145	1393290 24261 1268 328654 1.297803321975 59.997800246254 588 0.099999050596 0.100012512238 58.799995985753 5.8799992026922
144	1417551 16706 970 328350 1.248713393184 59.948709982702 588 6 6 3528 21168
143	1434257 16693 1268 328654 1.297803321975 59.997800246254 588 6 6 3528 21168
142	1450950 917 5174 328668 2 60 59 0 0 0 0
141	1451867 1272 5174 328668 2 60 59 0.023297 0.02625 1.545797 0.040508375209
140	1453139 917 5174 328668 2 60 59 6 6 354 2124
161	1454056 19989 239 328181 1.11 59.91 589 -5.3135466579065 1.6736132610618 -3.6639063422659 839.74010780594
160	1474045 20044 239 328181 1.11 59.91 589 -4.8267754337754 1.622408135896 -3.1735629861963 739.66496731364
159	1494089 13259 239 328181 1.11 59.91 589 36.55 36.55 21527.95 786846.5725
158	1507348 19082 239 328181 1.11 59.91 589 35.383171749115 1622.7786567787 490106.56291178 527493651.28141
157	1526430 19090 239 328181 1.11 59.91 589 16.651686662109 31.793959316052 15901.622338561 435146.55581726
155	1545520 20200 239 328181 1.11 59.91 589 -2.4198661201876 0.78600820436363 -1.6844574822836 179.26045814188
154	1565720 19082 239 328181 1.11 59.91 589 10.3552185856 17.825697090709 9128.6982573651 142897.37512299
156	1584802 10903 239 328181 1.11 59.91 589 7 7 4123 28861
168	1595705 24291 1040 328420 1.263894459526 59.96389104847 588 0.099999050756 0.100012528259 58.799995650418 5.8799991356294
167	1619996 24272 1274 328660 1.297803388317 59.99780031202 588 0.099999050534 0.10001251246 58.799995985177 5.879999202577
166	1644268 16701 1040 328420 1.263894459526 59.96389104847 588 7 7 4116 28812
165	1660969 16702 1274 328660 1.297803388317 59.99780031202 588 7 7 4116 28812
164	1677671 917 5175 328669 2 60 59 0 0 0 0
163	1678588 1272 5175 328669 2 60 59 0.023297 0.02625 1.545797 0.040508375209
162	1679860 917 5175 328669 2 60 59 7 7 413 2891
