version 2
run SinusoidalAccInjectionAttack-68-20170802-20:20:22-90832
attr CACCSpacing 20
attr attackAcc -10
attr attackPos 7
attr attackSpeed 150
attr attackStart 30
attr attacker 4
attr beaconInterval 0.1
attr configname SinusoidalAccInjectionAttack
attr controller 1
attr datetime 20170802-20:20:22
attr experiment SinusoidalAccInjectionAttack
attr fakeAcc "(4 == 4)"
attr fakePos "(4 == 2)"
attr fakeSpeed "(4 == 3)"
attr inifile omnetpp_68.ini
attr iterationvars "$attacker=4, $attackSpeed=150, $attackPos=7, $attackAcc=-10, $leaderSpeed=50, $controller=1, $CACCSpacing=20, $sController=\"CACC\", $attackStart=30, $0=20, $1=0, $nCars=8, $platoonSize=8, $nLanes=1, $beaconInterval=0.1, $priority=2, $packetSize=200, $ploegH=0.5, $leaderHeadway=1.2, $fakeSpeed=(4 == 3), $fakeAcc=(4 == 4), $fakePos=(4 == 2)"
attr iterationvarsf attacker=4,attackSpeed=150,attackPos=7,attackAcc=-10,leaderSpeed=50,controller=1,CACCSpacing=20,sController=CACC,attackStart=30,20,0,nCars=8,platoonSize=8,nLanes=1,beaconInterval=0.1,priority=2,packetSize=200,ploegH=0.5,leaderHeadway=1.2,fakeSpeed=(4_==_3),fakeAcc=(4_==_4),fakePos=(4_==_2)-
attr leaderHeadway 1.2
attr leaderSpeed 50
attr measurement "$attacker=4, $attackSpeed=150, $attackPos=7, $attackAcc=-10, $leaderSpeed=50, $controller=1, $CACCSpacing=20, $sController=\"CACC\", $attackStart=30, $0=20, $1=0, $nCars=8, $platoonSize=8, $nLanes=1, $beaconInterval=0.1, $priority=2, $packetSize=200, $ploegH=0.5, $leaderHeadway=1.2, $fakeSpeed=(4 == 3), $fakeAcc=(4 == 4), $fakePos=(4 == 2)"
attr nCars 8
attr nLanes 1
attr network scenario
attr packetSize 200
attr platoonSize 8
attr ploegH 0.5
attr priority 2
attr processid 90832
attr repetition 3
attr replication #3
attr resultdir results
attr runnumber 68
attr sController "\"CACC\""
attr seedset 3
param **.coreDebug false
param **.debug false
param **.headway 0.1s
param **.numberOfCars 8
param **.numberOfCarsPerPlatoon 8
param **.numberOfLanes 1
param **.numericController 1
param **.traffic.nCars 8
param **.traffic.nLanes 1
param **.traffic.platoonInsertDistance 20m
param **.traffic.platoonInsertHeadway 0s
param **.traffic.platoonInsertSpeed 50kmph
param **.traffic.platoonInsertTime "1 s"
param **.traffic.platoonLeaderHeadway 1.2s
param **.traffic.platoonSize 8
param **.traffic.platooningVType "\"vtypeauto\""
param **.traffic_type "\"PlatoonsTrafficManager\""
param *.**.nic.mac1609_4.bitrate 6Mbps
param *.**.nic.mac1609_4.txPower 100mW
param *.**.nic.mac1609_4.useServiceChannel false
param *.**.nic.phy80211p.analogueModels "xmldoc(\"config.xml\")"
param *.**.nic.phy80211p.decider "xmldoc(\"config.xml\")"
param *.**.nic.phy80211p.maxTXPower 100mW
param *.**.nic.phy80211p.sensitivity -94dBm
param *.**.nic.phy80211p.thermalNoise -95dBm
param *.**.nic.phy80211p.usePropagationDelay true
param *.**.nic.phy80211p.useThermalNoise true
param *.annotations.draw false
param *.connectionManager.alpha 2.0
param *.connectionManager.carrierFrequency "5.890e9 Hz"
param *.connectionManager.pMax 100mW
param *.connectionManager.sat -94dBm
param *.connectionManager.sendDirect true
param *.manager.autoShutdown true
param *.manager.commandLine "\"sumo --remote-port $port --seed $seed --configuration-file $configFile\""
param *.manager.configFile "\"./sumocfg/freeway.sumo.cfg\""
param *.manager.host "\"localhost\""
param *.manager.margin 25
param *.manager.moduleDisplayString "\"\""
param *.manager.moduleName "\"node\""
param *.manager.moduleType "\"Car\""
param *.manager.updateInterval 0.01s
param *.node[*].appl.attackStart 30s
param *.node[*].appl.attackerType 4
param *.node[*].appl.simulationDuration "60 s"
param *.node[*].appl_type "\"SimplePlatooningApp\""
param *.node[*].helper.nCars 8
param *.node[*].helper.nLanes 1
param *.node[*].helper.platoonSize 8
param *.node[*].helper_type "\"PositionHelper\""
param *.node[*].mobility.x 0
param *.node[*].mobility.y 0
param *.node[*].mobility.z 1.895
param *.node[*].prot.attackStart 30s
param *.node[*].prot.attackerType 4
param *.node[*].prot.attackingNode 3
param *.node[*].prot.beaconingInterval 0.1s
param *.node[*].prot.fakeAcc "(4 == 4)"
param *.node[*].prot.fakePos "(4 == 2)"
param *.node[*].prot.fakeSpeed "(4 == 3)"
param *.node[*].prot.maliciousAcc "-10 mpss"
param *.node[*].prot.maliciousSpeed 150kmph
param *.node[*].prot.packetSize 200
param *.node[*].prot.priority 2
param *.node[*].prot.shiftX "7 m"
param *.node[*].prot.useControllerAcceleration true
param *.node[*].protocol_type "\"SimplePlatooningBeaconing\""
param *.node[*].scenario.accHeadway 0.1s
param *.node[*].scenario.caccC1 0.5
param *.node[*].scenario.caccOmegaN "0.2 Hz"
param *.node[*].scenario.caccSpacing 20m
param *.node[*].scenario.caccXi 1
param *.node[*].scenario.controller "\"CACC\""
param *.node[*].scenario.engineTau "0.5 s"
param *.node[*].scenario.leaderHeadway 1.2s
param *.node[*].scenario.leaderOscillationFrequency "0.2 Hz"
param *.node[*].scenario.leaderSpeed 50kmph
param *.node[*].scenario.oscillationAmplitude "10 kmph"
param *.node[*].scenario.ploegH 0.5s
param *.node[*].scenario.ploegKd 0.7
param *.node[*].scenario.ploegKp 0.2
param *.node[*].scenario.startOscillating "5 s"
param *.node[*].scenario.useRealisticEngine false
param *.node[*].scenario_type "\"SinusoidalScenario\""
param *.node[*].unicast.packetLossRate 0
param *.obstacles.debug false
param *.playgroundSizeX 65000m
param *.playgroundSizeY 25000m
param *.playgroundSizeZ 50m
param *.world.use2D false
param *.world.useTorus false

vector 0  scenario.node[0].appl  distance  ETV
vector 1  scenario.node[0].appl  relativeSpeed  ETV
vector 2  scenario.node[0].appl  nodeId  ETV
vector 6  scenario.node[0].appl  acceleration  ETV
vector 7  scenario.node[0].appl  controllerAcceleration  ETV
vector 3  scenario.node[0].appl  speed  ETV
vector 4  scenario.node[0].appl  posx  ETV
vector 5  scenario.node[0].appl  posy  ETV
vector 22  scenario.node[1].appl  distance  ETV
vector 23  scenario.node[1].appl  relativeSpeed  ETV
vector 24  scenario.node[1].appl  nodeId  ETV
vector 28  scenario.node[1].appl  acceleration  ETV
vector 29  scenario.node[1].appl  controllerAcceleration  ETV
vector 25  scenario.node[1].appl  speed  ETV
vector 26  scenario.node[1].appl  posx  ETV
vector 27  scenario.node[1].appl  posy  ETV
vector 44  scenario.node[2].appl  distance  ETV
vector 45  scenario.node[2].appl  relativeSpeed  ETV
vector 46  scenario.node[2].appl  nodeId  ETV
vector 50  scenario.node[2].appl  acceleration  ETV
vector 51  scenario.node[2].appl  controllerAcceleration  ETV
vector 47  scenario.node[2].appl  speed  ETV
vector 48  scenario.node[2].appl  posx  ETV
vector 49  scenario.node[2].appl  posy  ETV
vector 66  scenario.node[3].appl  distance  ETV
vector 67  scenario.node[3].appl  relativeSpeed  ETV
vector 68  scenario.node[3].appl  nodeId  ETV
vector 72  scenario.node[3].appl  acceleration  ETV
vector 73  scenario.node[3].appl  controllerAcceleration  ETV
vector 69  scenario.node[3].appl  speed  ETV
vector 70  scenario.node[3].appl  posx  ETV
vector 71  scenario.node[3].appl  posy  ETV
vector 88  scenario.node[4].appl  distance  ETV
vector 89  scenario.node[4].appl  relativeSpeed  ETV
vector 90  scenario.node[4].appl  nodeId  ETV
vector 94  scenario.node[4].appl  acceleration  ETV
vector 95  scenario.node[4].appl  controllerAcceleration  ETV
vector 91  scenario.node[4].appl  speed  ETV
vector 92  scenario.node[4].appl  posx  ETV
vector 93  scenario.node[4].appl  posy  ETV
vector 110  scenario.node[5].appl  distance  ETV
vector 111  scenario.node[5].appl  relativeSpeed  ETV
vector 112  scenario.node[5].appl  nodeId  ETV
vector 116  scenario.node[5].appl  acceleration  ETV
vector 117  scenario.node[5].appl  controllerAcceleration  ETV
vector 113  scenario.node[5].appl  speed  ETV
vector 114  scenario.node[5].appl  posx  ETV
vector 115  scenario.node[5].appl  posy  ETV
vector 132  scenario.node[6].appl  distance  ETV
vector 133  scenario.node[6].appl  relativeSpeed  ETV
vector 134  scenario.node[6].appl  nodeId  ETV
vector 138  scenario.node[6].appl  acceleration  ETV
vector 139  scenario.node[6].appl  controllerAcceleration  ETV
vector 135  scenario.node[6].appl  speed  ETV
vector 136  scenario.node[6].appl  posx  ETV
vector 137  scenario.node[6].appl  posy  ETV
vector 154  scenario.node[7].appl  distance  ETV
vector 155  scenario.node[7].appl  relativeSpeed  ETV
vector 156  scenario.node[7].appl  nodeId  ETV
vector 160  scenario.node[7].appl  acceleration  ETV
vector 161  scenario.node[7].appl  controllerAcceleration  ETV
vector 157  scenario.node[7].appl  speed  ETV
vector 158  scenario.node[7].appl  posx  ETV
vector 159  scenario.node[7].appl  posy  ETV
vector 35  scenario.node[1].prot  leaderDelay  ETV
vector 33  scenario.node[1].prot  leaderDelayId  ETV
vector 36  scenario.node[1].prot  frontDelay  ETV
vector 34  scenario.node[1].prot  frontDelayId  ETV
vector 57  scenario.node[2].prot  leaderDelay  ETV
vector 55  scenario.node[2].prot  leaderDelayId  ETV
vector 79  scenario.node[3].prot  leaderDelay  ETV
vector 77  scenario.node[3].prot  leaderDelayId  ETV
vector 101  scenario.node[4].prot  leaderDelay  ETV
vector 99  scenario.node[4].prot  leaderDelayId  ETV
vector 123  scenario.node[5].prot  leaderDelay  ETV
vector 121  scenario.node[5].prot  leaderDelayId  ETV
vector 145  scenario.node[6].prot  leaderDelay  ETV
vector 143  scenario.node[6].prot  leaderDelayId  ETV
vector 167  scenario.node[7].prot  leaderDelay  ETV
vector 165  scenario.node[7].prot  leaderDelayId  ETV
vector 168  scenario.node[7].prot  frontDelay  ETV
vector 166  scenario.node[7].prot  frontDelayId  ETV
vector 58  scenario.node[2].prot  frontDelay  ETV
vector 56  scenario.node[2].prot  frontDelayId  ETV
vector 124  scenario.node[5].prot  frontDelay  ETV
vector 122  scenario.node[5].prot  frontDelayId  ETV
vector 80  scenario.node[3].prot  frontDelay  ETV
vector 78  scenario.node[3].prot  frontDelayId  ETV
vector 146  scenario.node[6].prot  frontDelay  ETV
vector 144  scenario.node[6].prot  frontDelayId  ETV
vector 102  scenario.node[4].prot  frontDelay  ETV
vector 100  scenario.node[4].prot  frontDelayId  ETV
vector 8  scenario.node[0].prot  nodeId  ETV
vector 9  scenario.node[0].prot  busyTime  ETV
vector 10  scenario.node[0].prot  collisions  ETV
vector 30  scenario.node[1].prot  nodeId  ETV
vector 31  scenario.node[1].prot  busyTime  ETV
vector 32  scenario.node[1].prot  collisions  ETV
vector 52  scenario.node[2].prot  nodeId  ETV
vector 53  scenario.node[2].prot  busyTime  ETV
vector 54  scenario.node[2].prot  collisions  ETV
vector 74  scenario.node[3].prot  nodeId  ETV
vector 75  scenario.node[3].prot  busyTime  ETV
vector 76  scenario.node[3].prot  collisions  ETV
vector 96  scenario.node[4].prot  nodeId  ETV
vector 97  scenario.node[4].prot  busyTime  ETV
vector 98  scenario.node[4].prot  collisions  ETV
vector 118  scenario.node[5].prot  nodeId  ETV
vector 119  scenario.node[5].prot  busyTime  ETV
vector 120  scenario.node[5].prot  collisions  ETV
vector 140  scenario.node[6].prot  nodeId  ETV
vector 141  scenario.node[6].prot  busyTime  ETV
vector 142  scenario.node[6].prot  collisions  ETV
vector 162  scenario.node[7].prot  nodeId  ETV
vector 163  scenario.node[7].prot  busyTime  ETV
vector 164  scenario.node[7].prot  collisions  ETV
7	232	1.11	-4.215365603244e-07
7	788	1.21	-4.123519392607e-07
7	1344	1.31	-3.9742146640265e-07
7	1900	1.41	-3.7804518804307e-07
7	2456	1.51	-3.5536931619617e-07
7	3012	1.61	-3.3039333047213e-07
7	3568	1.71	-3.039784495229e-07
7	4124	1.81	-2.7685694803381e-07
7	4680	1.91	-2.4964219491608e-07
7	5244	2.01	-2.2283905920517e-07
7	5800	2.11	-1.9685434082817e-07
7	6356	2.21	-1.7200705926257e-07
7	6912	2.31	-1.4853853436136e-07
7	7468	2.41	-1.2662199289082e-07
7	8024	2.51	-1.0637172032091e-07
7	8580	2.61	-8.7851576680009e-08
7	9136	2.71	-7.1082913777332e-08
7	9692	2.81	-5.6051822738823e-08
7	10248	2.91	-4.2715759818179e-08
7	10812	3.01	-3.1009408374416e-08
7	11368	3.11	-2.0849929782685e-08
7	11924	3.21	-1.2141658345399e-08
7	12480	3.31	-4.7800785551999e-09
7	13036	3.41	1.3447181146375e-09
7	13592	3.51	6.3450702469936e-09
7	14148	3.61	1.0333288003039e-08
7	14704	3.71	1.3419677813431e-08
7	15260	3.81	1.5710899248234e-08
7	15816	3.91	1.7308703803565e-08
7	16380	4.01	1.830899876154e-08
7	16936	4.11	1.8801173951033e-08
7	17492	4.21	1.8867702067382e-08
7	18048	4.31	1.8583865113442e-08
7	18604	4.41	1.8017717096086e-08
7	19160	4.51	1.723012310606e-08
7	19716	4.61	1.6274986691656e-08
7	20272	4.71	1.5199535852162e-08
7	20828	4.81	1.4044672980162e-08
7	21384	4.91	1.2845363883685e-08
7	21949	5.01	1.1631094309905e-08
7	22506	5.11	0.3481478814383
7	23063	5.21	0.68726936236521
7	23620	5.31	1.0064706229906
7	24177	5.41	1.2963311628453
7	24734	5.51	1.5
7	25291	5.61	1.5
7	25848	5.71	1.5
7	26405	5.81	1.5
7	26962	5.91	1.5
7	27527	6.01	1.5
7	28084	6.11	1.5
7	28641	6.21	1.5
7	29198	6.31	1.5
7	29755	6.41	1.5
7	30312	6.51	1.4919234130517
7	30869	6.61	1.2264993275909
7	31426	6.71	0.92305383931647
7	31983	6.81	0.58908101929403
7	32540	6.91	0.23235621605629
7	33105	7.01	-0.13919559804423
7	33662	7.11	-0.51762846559318
7	34219	7.21	-0.89509993922417
7	34776	7.31	-1.2639902882471
7	35333	7.41	-1.5
7	35890	7.51	-1.5
7	36447	7.61	-1.5
7	37004	7.71	-1.5
7	37561	7.81	-1.5
7	38118	7.91	-1.5
7	38683	8.01	-1.5
7	39240	8.11	-1.5
7	39797	8.21	-1.5
7	40354	8.31	-1.5
7	40911	8.41	-1.5
7	41468	8.51	-1.5
7	42025	8.61	-1.5
7	42582	8.71	-1.5
7	43139	8.81	-1.5
7	43696	8.91	-1.5
7	44261	9.01	-1.5
7	44818	9.11	-1.5
7	45375	9.21	-1.5
7	45932	9.31	-1.5
7	46489	9.41	-1.5
7	47046	9.51	-1.1784535904988
7	47603	9.61	-0.73985166426131
7	48160	9.71	-0.29046662065306
7	48717	9.81	0.15868205664034
7	49274	9.91	0.59737147685681
7	49839	10.01	1.0162504341391
7	50396	10.11	1.4069035498462
7	50953	10.21	1.5
7	51510	10.31	1.5
7	52067	10.41	1.5
7	52624	10.51	1.5
7	53181	10.61	1.5
7	53738	10.71	1.5
7	54295	10.81	1.5
7	54852	10.91	1.5
7	55417	11.01	1.5
7	55974	11.11	1.5
7	56531	11.21	1.5
7	57088	11.31	1.5
7	57645	11.41	1.5
7	58202	11.51	1.5
7	58759	11.61	1.5
7	59316	11.71	1.5
7	59873	11.81	1.5
7	60430	11.91	1.1420569523224
7	60995	12.01	0.73271074172757
7	61552	12.11	0.30763491701868
7	62109	12.21	-0.12290183401692
7	62666	12.31	-0.54917422866109
7	63223	12.41	-0.96209331717302
7	63780	12.51	-1.3532900275371
7	64337	12.61	-1.5
7	64894	12.71	-1.5
7	65451	12.81	-1.5
7	66008	12.91	-1.5
7	66573	13.01	-1.5
7	67130	13.11	-1.5
7	67687	13.21	-1.5
7	68244	13.31	-1.5
7	68801	13.41	-1.5
7	69358	13.51	-1.5
7	69915	13.61	-1.5
7	70472	13.71	-1.5
7	71029	13.81	-1.5
7	71586	13.91	-1.5
7	72151	14.01	-1.5
7	72708	14.11	-1.5
7	73265	14.21	-1.5
7	73822	14.31	-1.5
7	74379	14.41	-1.3008305793183
7	74936	14.51	-0.88835736021285
7	75493	14.61	-0.45792464374985
7	76050	14.71	-0.020297800482021
7	76607	14.81	0.4143593475729
7	77164	14.91	0.8365748748462
7	77729	15.01	1.2376491838941
7	78286	15.11	1.5
7	78843	15.21	1.5
7	79400	15.31	1.5
7	79957	15.41	1.5
7	80514	15.51	1.5
7	81071	15.61	1.5
7	81628	15.71	1.5
7	82185	15.81	1.5
7	82742	15.91	1.5
7	83307	16.01	1.5
7	83864	16.11	1.5
7	84421	16.21	1.5
7	84978	16.31	1.5
7	85535	16.41	1.5
7	86092	16.51	1.5
7	86649	16.61	1.5
7	87206	16.71	1.5
7	87763	16.81	1.5
7	88320	16.91	1.2451238477388
7	88885	17.01	0.83347870135435
7	89442	17.11	0.40470958876969
7	89999	17.21	-0.030598062218257
7	90556	17.31	-0.46243980386594
7	91113	17.41	-0.8814833530456
7	91670	17.51	-1.2791500631716
7	92227	17.61	-1.5
7	92784	17.71	-1.5
7	93341	17.81	-1.5
7	93898	17.91	-1.5
7	94463	18.01	-1.5
7	95020	18.11	-1.5
7	95577	18.21	-1.5
7	96134	18.31	-1.5
7	96691	18.41	-1.5
7	97248	18.51	-1.5
7	97805	18.61	-1.5
7	98362	18.71	-1.5
7	98919	18.81	-1.5
7	99476	18.91	-1.5
7	100041	19.01	-1.5
7	100598	19.11	-1.5
7	101155	19.21	-1.5
7	101712	19.31	-1.5
7	102269	19.41	-1.2657245815134
7	102826	19.51	-0.85377693481579
7	103383	19.61	-0.42439560038158
7	103940	19.71	0.011767371267542
7	104497	19.81	0.44464851836336
7	105054	19.91	0.86486384400473
7	105619	20.01	1.2637899041122
7	106176	20.11	1.5
7	106733	20.21	1.5
7	107290	20.31	1.5
7	107847	20.41	1.5
7	108404	20.51	1.5
7	108961	20.61	1.5
7	109518	20.71	1.5
7	110075	20.81	1.5
7	110632	20.91	1.5
7	111197	21.01	1.5
7	111754	21.11	1.5
7	112311	21.21	1.5
7	112868	21.31	1.5
7	113425	21.41	1.5
7	113982	21.51	1.5
7	114539	21.61	1.5
7	115096	21.71	1.5
7	115653	21.81	1.5
7	116210	21.91	1.2580915517758
7	116775	22.01	0.84625491634779
7	117332	22.11	0.41709956367461
7	117889	22.21	-0.018747163543122
7	118446	22.31	-0.45124369149455
7	119003	22.41	-0.8710252053863
7	119560	22.51	-1.26948487946
7	120117	22.61	-1.5
7	120674	22.71	-1.5
7	121231	22.81	-1.5
7	121788	22.91	-1.5
7	122353	23.01	-1.5
7	122910	23.11	-1.5
7	123467	23.21	-1.5
7	124024	23.31	-1.5
7	124581	23.41	-1.5
7	125138	23.51	-1.5
7	125695	23.61	-1.5
7	126252	23.71	-1.5
7	126809	23.81	-1.5
7	127366	23.91	-1.5
7	127931	24.01	-1.5
7	128488	24.11	-1.5
7	129045	24.21	-1.5
7	129602	24.31	-1.5
7	130159	24.41	-1.260923965112
7	130716	24.51	-0.84904615684565
7	131273	24.61	-0.41980696481147
7	131830	24.71	0.01615709944571
7	132387	24.81	0.44879633965971
7	132944	24.91	0.86873882266827
7	133509	25.01	1.2673715557189
7	134066	25.11	1.5
7	134623	25.21	1.5
7	135180	25.31	1.5
7	135737	25.41	1.5
7	136294	25.51	1.5
7	136851	25.61	1.5
7	137408	25.71	1.5
7	137965	25.81	1.5
7	138522	25.91	1.5
7	139087	26.01	1.5
7	139644	26.11	1.5
7	140201	26.21	1.5
7	140758	26.31	1.5
7	141315	26.41	1.5
7	141872	26.51	1.5
7	142429	26.61	1.5
7	142986	26.71	1.5
7	143543	26.81	1.5
7	144100	26.91	1.259872851863
7	144665	27.01	0.84801032251393
7	145222	27.11	0.41880224309103
7	145779	27.21	-0.017118277442348
7	146336	27.31	-0.44970455708455
7	146893	27.41	-0.86958730431938
7	147450	27.51	-1.2681558149833
7	148007	27.61	-1.5
7	148564	27.71	-1.5
7	149121	27.81	-1.5
7	149678	27.91	-1.5
7	150243	28.01	-1.5
7	150800	28.11	-1.5
7	151357	28.21	-1.5
7	151914	28.31	-1.5
7	152471	28.41	-1.5
7	153028	28.51	-1.5
7	153585	28.61	-1.5
7	154142	28.71	-1.5
7	154699	28.81	-1.5
7	155256	28.91	-1.5
7	155821	29.01	-1.5
7	156378	29.11	-1.5
7	156935	29.21	-1.5
7	157492	29.31	-1.5
7	158049	29.41	-1.2602629232527
7	158606	29.51	-0.84839472385746
7	159163	29.61	-0.41917509845393
7	159720	29.71	0.016761581285863
7	160277	29.81	0.44936751475712
7	160834	29.91	0.86927243012053
7	161399	30.01	1.2678647739099
7	161956	30.11	1.5
7	162513	30.21	1.5
7	163070	30.31	1.5
7	163627	30.41	1.5
7	164184	30.51	1.5
7	164741	30.61	1.5
7	165298	30.71	1.5
7	165855	30.81	1.5
7	166412	30.91	1.5
7	166977	31.01	1.5
7	167534	31.11	1.5
7	168091	31.21	1.5
7	168648	31.31	1.5
7	169205	31.41	1.5
7	169762	31.51	1.5
7	170319	31.61	1.5
7	170876	31.71	1.5
7	171433	31.81	1.5
7	171990	31.91	1.2601181665191
7	172555	32.01	0.84825207129591
7	173112	32.11	0.4190367306424
7	173669	32.21	-0.01689395236456
7	174226	32.31	-0.44949259223739
7	174783	32.41	-0.86938928093775
7	175340	32.51	-1.2679727801784
7	175897	32.61	-1.5
7	176454	32.71	-1.5
7	177011	32.81	-1.5
7	177568	32.91	-1.5
7	178133	33.01	-1.5
7	178690	33.11	-1.5
7	179247	33.21	-1.5
7	179804	33.31	-1.5
7	180361	33.41	-1.5
7	180918	33.51	-1.5
7	181475	33.61	-1.5
7	182032	33.71	-1.5
7	182589	33.81	-1.5
7	183146	33.91	-1.5
7	183711	34.01	-1.5
7	184268	34.11	-1.5
7	184825	34.21	-1.5
7	185382	34.31	-1.5
7	185939	34.41	-1.2601718862043
7	186496	34.51	-0.8483050101162
7	187053	34.61	-0.4190880793783
7	187610	34.71	0.016844829035321
7	188167	34.81	0.44944617558577
7	188724	34.91	0.86934591722702
7	189289	35.01	1.2679326987079
7	189846	35.11	1.5
7	190403	35.21	1.5
7	190960	35.31	1.5
7	191517	35.41	1.5
7	192074	35.51	1.5
7	192631	35.61	1.5
7	193188	35.71	1.5
7	193745	35.81	1.5
7	194302	35.91	1.5
7	194867	36.01	1.5
7	195424	36.11	1.5
7	195981	36.21	1.5
7	196538	36.31	1.5
7	197095	36.41	1.5
7	197652	36.51	1.5
7	198209	36.61	1.5
7	198766	36.71	1.5
7	199323	36.81	1.5
7	199880	36.91	1.260151950659
7	200445	37.01	0.8482853643524
7	201002	37.11	0.41906902369986
7	201559	37.21	-0.016863058858293
7	202116	37.31	-0.44946340095208
7	202673	37.41	-0.86936200963733
7	203230	37.51	-1.2679475730685
7	203787	37.61	-1.5
7	204344	37.71	-1.5
7	204901	37.81	-1.5
7	205458	37.91	-1.5
7	206023	38.01	-1.5
7	206580	38.11	-1.5
7	207137	38.21	-1.5
7	207694	38.31	-1.5
7	208251	38.41	-1.5
6	232	1.11	-6.1957727837125e-08
6	788	1.21	-1.257166815094e-07
6	1344	1.31	-1.7576642363792e-07
6	1900	1.41	-2.1367210223389e-07
6	2456	1.51	-2.40935627005e-07
6	3012	1.61	-2.5897985977963e-07
6	3568	1.71	-2.6913706818732e-07
6	4124	1.81	-2.7264253077419e-07
6	4680	1.91	-2.70628319754e-07
6	5244	2.01	-2.6412187992264e-07
6	5800	2.11	-2.540470944723e-07
6	6356	2.21	-2.4122570607688e-07
6	6912	2.31	-2.2638122487706e-07
6	7468	2.41	-2.1014301410105e-07
6	8024	2.51	-1.9305321785623e-07
6	8580	2.61	-1.7557066911422e-07
6	9136	2.71	-1.5808012676644e-07
6	9692	2.81	-1.408965388805e-07
6	10248	2.91	-1.2427268103465e-07
6	10812	3.01	-1.0840643938081e-07
6	11368	3.11	-9.3446494986438e-08
6	11924	3.21	-7.9497652905047e-08
6	12480	3.31	-6.662919105338e-08
6	13036	3.41	-5.487734711096e-08
6	13592	3.51	-4.4252601583139e-08
6	14148	3.61	-3.474287524341e-08
6	14704	3.71	-2.631832529687e-08
6	15260	3.81	-1.8935253365271e-08
6	15816	3.91	-1.2538947657958e-08
6	16380	4.01	-7.0667027785021e-09
6	16936	4.11	-2.4508395313205e-09
6	17492	4.21	1.3796963571622e-09
6	18048	4.31	4.4970249746257e-09
6	18604	4.41	6.9737993158014e-09
6	19160	4.51	8.8805407472137e-09
6	19716	4.61	1.0285283735811e-08
6	20272	4.71	1.1253575848968e-08
6	20828	4.81	1.1845813219225e-08
6	21384	4.91	1.2119549808176e-08
6	21949	5.01	1.2126655235534e-08
6	22506	5.11	0.0068264407582674
6	23063	5.21	0.074594825204244
6	23620	5.31	0.19005133580965
6	24177	5.41	0.34050271604578
6	24734	5.51	0.51301637992296
6	25291	5.61	0.69025457770344
6	25848	5.71	0.83572671948744
6	26405	5.81	0.95506454367928
6	26962	5.91	1.0529631248657
6	27527	6.01	1.1332740595019
6	28084	6.11	1.1991569981921
6	28641	6.21	1.2532039549377
6	29198	6.31	1.2975412840174
6	29755	6.41	1.333913336549
6	30312	6.51	1.3635927235564
6	30869	6.61	1.3702053601566
6	31426	6.71	1.3272611912161
6	31983	6.81	1.2373810907324
6	32540	6.91	1.10404337413
6	33105	7.01	0.93147091874766
6	33662	7.11	0.72451590435048
6	34219	7.21	0.4885431822391
6	34776	7.31	0.22931329511646
6	35333	7.41	-0.044839399439311
6	35890	7.51	-0.30626147528494
6	36447	7.61	-0.52071863075458
6	37004	7.71	-0.69664819363986
6	37561	7.81	-0.84097171145086
6	38118	7.91	-0.95936726391912
6	38683	8.01	-1.0564928540992
6	39240	8.11	-1.1361696668779
6	39797	8.21	-1.2015324047802
6	40354	8.31	-1.2551526156937
6	40911	8.41	-1.2991398645553
6	41468	8.51	-1.3352247293753
6	42025	8.61	-1.3648268868815
6	42582	8.71	-1.3891109664646
6	43139	8.81	-1.4090323698644
6	43696	8.91	-1.4253748592747
6	44261	9.01	-1.4387813926779
6	44818	9.11	-1.4497794195627
6	45375	9.21	-1.4588016322197
6	45932	9.31	-1.4662029890339
6	46489	9.41	-1.472274679513
6	47046	9.51	-1.4696249147034
6	47603	9.61	-1.3967850639437
6	48160	9.71	-1.2587757641633
6	48717	9.81	-1.0660952218261
6	49274	9.91	-0.82923335021992
6	49839	10.01	-0.55852907837295
6	50396	10.11	-0.26404116072971
6	50953	10.21	0.039432698699926
6	51510	10.31	0.30182609752512
6	52067	10.41	0.51708007614977
6	52624	10.51	0.69366331155596
6	53181	10.61	0.83852306850822
6	53738	10.71	0.95735852384404
6	54295	10.81	1.0548449875937
6	54852	10.91	1.1348178423914
6	55417	11.01	1.2004234378608
6	55974	11.11	1.2542428765666
6	56531	11.21	1.2983935616091
6	57088	11.31	1.3346125010223
6	57645	11.41	1.364324646393
6	58202	11.51	1.3886989543336
6	58759	11.61	1.4086943764131
6	59316	11.71	1.4250975869215
6	59873	11.81	1.4385539327746
6	60430	11.91	1.4345627372796
6	60995	12.01	1.362344918871
6	61552	12.11	1.2299875654412
6	62109	12.21	1.0461448397713
6	62666	12.31	0.81967864248274
6	63223	12.41	0.55952045903922
6	63780	12.51	0.27454262948492
6	64337	12.61	-0.022341644884349
6	64894	12.71	-0.2878054805846
6	65451	12.81	-0.50557828687943
6	66008	12.91	-0.68422783828268
6	66573	13.01	-0.83078269404986
6	67130	13.11	-0.95100872081701
6	67687	13.21	-1.0496359374757
6	68244	13.31	-1.1305446069832
6	68801	13.41	-1.1969178964591
6	69358	13.51	-1.2513671116379
6	69915	13.61	-1.2960344327389
6	70472	13.71	-1.3326771936644
6	71029	13.81	-1.3627370202924
6	71586	13.91	-1.3873965479609
6	72151	14.01	-1.4076259495598
6	72708	14.11	-1.4242211047687
6	73265	14.21	-1.4378349121303
6	73822	14.31	-1.4490029758544
6	74379	14.41	-1.454259395185
6	74936	14.51	-1.4067454390036
6	75493	14.61	-1.2938574955303
6	76050	14.71	-1.124840905225
6	76607	14.81	-0.90912582142568
6	77164	14.91	-0.65618298375991
6	77729	15.01	-0.37539052553566
6	78286	15.11	-0.078063005087259
6	78843	15.21	0.20543869668082
6	79400	15.31	0.43800883573812
6	79957	15.41	0.62879735391554
6	80514	15.51	0.7853103904381
6	81071	15.61	0.91370559385755
6	81628	15.71	1.0190343806947
6	82185	15.81	1.1054406719046
6	82742	15.91	1.1763239259972
6	83307	16.01	1.2344728829815
6	83864	16.11	1.2821752809831
6	84421	16.21	1.3213078620836
6	84978	16.31	1.353410208459
6	85535	16.41	1.3797453137304
6	86092	16.51	1.4013492725669
6	86649	16.61	1.4190720434685
6	87206	16.71	1.433610888447
6	87763	16.81	1.4455378052071
6	88320	16.91	1.4502949065323
6	88885	17.01	1.3935559567521
6	89442	17.11	1.2733368701442
6	89999	17.21	1.0986742440538
6	90556	17.31	0.87879676591474
6	91113	17.41	0.62298329276036
6	91670	17.51	0.34043137853494
6	92227	17.61	0.043031849081565
6	92784	17.71	-0.23417644595263
6	93341	17.81	-0.4615837994951
6	93898	17.91	-0.648137035353
6	94463	18.01	-0.801175665225
6	95020	18.11	-0.92672064505575
6	95577	18.21	-1.0297112558181
6	96134	18.31	-1.1141994282598
6	96691	18.41	-1.1835091568821
6	97248	18.51	-1.2403672749222
6	97805	18.61	-1.2870107353907
6	98362	18.71	-1.325274618886
6	98919	18.81	-1.3566643306579
6	99476	18.91	-1.3824148273438
6	100041	19.01	-1.4035392035211
6	100598	19.11	-1.420868549604
6	101155	19.21	-1.4350846492013
6	101712	19.31	-1.4467468023362
6	102269	19.41	-1.451720194177
6	102826	19.51	-1.3984004323888
6	103383	19.61	-1.2808993810095
6	103940	19.71	-1.1083308503775
6	104497	19.81	-0.88999806036849
6	105054	19.91	-0.63525086466907
6	105619	20.01	-0.35335363991358
6	106176	20.11	-0.055983891307321
6	106733	20.21	0.22355126013291
6	107290	20.31	0.4528674463721
6	107847	20.41	0.6409865898874
6	108404	20.51	0.79530980944416
6	108961	20.61	0.92190860023873
6	109518	20.71	1.0257637030335
6	110075	20.81	1.1109610600444
6	110632	20.91	1.1808525670222
6	111197	21.01	1.2381879459472
6	111754	21.11	1.2852229265711
6	112311	21.21	1.3238079929604
6	112868	21.31	1.3554611865732
6	113425	21.41	1.3814278301394
6	113982	21.51	1.4027295220425
6	114539	21.61	1.4202043287794
6	115096	21.71	1.4345397567766
6	115653	21.81	1.4462998007621
6	116210	21.91	1.4512038299459
6	116775	22.01	1.3966149622043
6	117332	22.11	1.2781048258539
6	117889	22.21	1.1047586168255
6	118446	22.31	0.88585193073953
6	119003	22.41	0.63070830476128
6	119560	22.51	0.34856734381012
6	120117	22.61	0.0511856543703
6	120674	22.71	-0.22748748564663
6	121231	22.81	-0.45609652228009
6	121788	22.91	-0.6436355568189
6	122353	23.01	-0.79748288496297
6	122910	23.11	-0.92369127904615
6	123467	23.21	-1.0272261205623
6	124024	23.31	-1.1121607517778
6	124581	23.41	-1.1818367320961
6	125138	23.51	-1.2389953040925
6	125695	23.61	-1.2858852414526
6	126252	23.71	-1.3243513218477
6	126809	23.81	-1.3559069055024
6	127366	23.91	-1.3817934749051
6	127931	24.01	-1.4030294781042
6	128488	24.11	-1.4204503972245
6	129045	24.21	-1.4347416186069
6	129602	24.31	-1.4464653977715
6	130159	24.41	-1.4513952146874
6	130716	24.51	-1.3972773206753
6	131273	24.61	-1.2791416668554
6	131830	24.71	-1.1060840673016
6	132387	24.81	-0.88739036841616
6	132944	24.91	-0.63239387292562
6	133509	25.01	-0.35034337810913
6	134066	25.11	-0.052966136909482
6	134623	25.21	0.22602686982296
6	135180	25.31	0.45489830857282
6	135737	25.41	0.64265260424126
6	136294	25.51	0.79667652148707
6	136851	25.61	0.92302978013983
6	137408	25.71	1.026683461059
6	137965	25.81	1.1117155819768
6	138522	25.91	1.1814715378065
6	139087	26.01	1.2386957175778
6	139644	26.11	1.2856394761648
6	140201	26.21	1.3241497087115
6	140758	26.31	1.3557415125092
6	141315	26.41	1.3816577950445
6	141872	26.51	1.4029181733612
6	142429	26.61	1.4203590885678
6	142986	26.71	1.4346667137062
6	143543	26.81	1.4464039496636
6	144100	26.91	1.4513241957731
6	144665	27.01	1.3970315218257
6	145222	27.11	1.2787568961965
6	145779	27.21	1.105592192547
6	146336	27.31	0.88681945319422
6	146893	27.41	0.63176835684544
6	147450	27.51	0.34968428947462
6	148007	27.61	0.052305397195518
6	148564	27.71	-0.22656890652382
6	149121	27.81	-0.45534296745871
6	149678	27.91	-0.64301737940227
6	150243	28.01	-0.79697576416979
6	150800	28.11	-0.92327526336593
6	151357	28.21	-1.0268848428064
6	151914	28.31	-1.1118807851512
6	152471	28.41	-1.1816070619497
6	153028	28.51	-1.2388068945784
6	153585	28.61	-1.2857306800282
6	154142	28.71	-1.3242245276457
6	154699	28.81	-1.3558028900942
6	155256	28.91	-1.3817081460418
6	155821	29.01	-1.4029594787162
6	156378	29.11	-1.420392973346
6	156935	29.21	-1.4346945110265
6	157492	29.31	-1.446426753148
6	158049	29.41	-1.451350551031
6	158606	29.51	-1.3971227384756
6	159163	29.61	-1.2788996857301
6	159720	29.71	-1.1057747287552
6	160277	29.81	-0.8870313215759
6	160834	29.91	-0.6320004877848
6	161399	30.01	-0.34992887930123
6	161956	30.11	-0.052550599748891
6	162513	30.21	0.22636775502605
6	163070	30.31	0.45517795316936
6	163627	30.41	0.64288201021068
6	164184	30.51	0.79686471428388
6	164741	30.61	0.92318416378063
6	165298	30.71	1.0268101094166
6	165855	30.81	1.1118194777421
6	166412	30.91	1.1815567685211
6	166977	31.01	1.2387656364497
6	167534	31.11	1.2856968339927
6	168091	31.21	1.3241967621083
6	168648	31.31	1.3557801126831
6	169205	31.41	1.3816894606315
6	169762	31.51	1.4029441501719
6	170319	31.61	1.4203803986005
6	170876	31.71	1.4346841953552
6	171433	31.81	1.4464182907044
6	171990	31.91	1.4513407705126
6	172555	32.01	1.397088887688
6	173112	32.11	1.278846696081
6	173669	32.21	1.1057069889883
6	174226	32.31	0.88695269654568
6	174783	32.41	0.63191434325471
6	175340	32.51	0.34983811123848
6	175897	32.61	0.052459604300914
6	176454	32.71	-0.22644240298693
6	177011	32.81	-0.4552391904971
6	177568	32.91	-0.64293224614804
6	178133	33.01	-0.79690592524955
6	178690	33.11	-0.92321797112618
6	179247	33.21	-1.0268378432148
6	179804	33.31	-1.111842229116
6	180361	33.41	-1.1815754325719
6	180918	33.51	-1.2387809474721
6	181475	33.61	-1.2857093943635
6	182032	33.71	-1.3242070659869
6	182589	33.81	-1.3557885654523
6	183146	33.91	-1.3816963948463
6	183711	34.01	-1.4029498386432
6	184268	34.11	-1.4203850651285
6	184825	34.21	-1.4346880235333
6	185382	34.31	-1.446421431144
6	185939	34.41	-1.451344400094
6	186496	34.51	-1.397101449823
6	187053	34.61	-1.2788663607086
6	187610	34.71	-1.1057321274317
6	188167	34.81	-0.88698187454508
6	188724	34.91	-0.63194631176433
6	189289	35.01	-0.34987179555621
6	189846	35.11	-0.052493373002349
6	190403	35.21	0.22641470089031
6	190960	35.31	0.4552164651292
6	191517	35.41	0.64291360343098
6	192074	35.51	0.79689063172861
6	192631	35.61	0.92320542511199
6	193188	35.71	1.026827551113
6	193745	35.81	1.1118337860077
6	194302	35.91	1.1815685062823
6	194867	36.01	1.2387752655021
6	195424	36.11	1.2857047331693
6	195981	36.21	1.3242032421841
6	196538	36.31	1.355785428602
6	197095	36.41	1.3816938215363
6	197652	36.51	1.4029477276326
6	198209	36.61	1.4203833333644
6	198766	36.71	1.4346866028836
6	199323	36.81	1.4464202657166
6	199880	36.91	1.4513430531444
6	200445	37.01	1.3970967879747
6	201002	37.11	1.2788590631029
6	201559	37.21	1.1057227984756
6	202116	37.31	0.88697104649729
6	202673	37.41	0.63193444814935
6	203230	37.51	0.34985929519937
6	203787	37.61	0.052480841330471
6	204344	37.71	-0.22642498122583
6	204901	37.81	-0.45522489858492
6	205458	37.91	-0.64292052180228
6	206023	38.01	-0.79689630720274
6	206580	38.11	-0.92321008097791
6	207137	38.21	-1.0268313705451
6	207694	38.31	-1.1118369192724
6	208251	38.41	-1.1815710766507
5	232	1.11	36.55
5	788	1.21	36.55
5	1344	1.31	36.55
5	1900	1.41	36.55
5	2456	1.51	36.55
5	3012	1.61	36.55
5	3568	1.71	36.55
5	4124	1.81	36.55
5	4680	1.91	36.55
5	5244	2.01	36.55
5	5800	2.11	36.55
5	6356	2.21	36.55
5	6912	2.31	36.55
5	7468	2.41	36.55
5	8024	2.51	36.55
5	8580	2.61	36.55
5	9136	2.71	36.55
5	9692	2.81	36.55
5	10248	2.91	36.55
5	10812	3.01	36.55
5	11368	3.11	36.55
5	11924	3.21	36.55
5	12480	3.31	36.55
5	13036	3.41	36.55
5	13592	3.51	36.55
5	14148	3.61	36.55
5	14704	3.71	36.55
5	15260	3.81	36.55
5	15816	3.91	36.55
5	16380	4.01	36.55
5	16936	4.11	36.55
5	17492	4.21	36.55
5	18048	4.31	36.55
5	18604	4.41	36.55
5	19160	4.51	36.55
5	19716	4.61	36.55
5	20272	4.71	36.55
5	20828	4.81	36.55
5	21384	4.91	36.55
5	21949	5.01	36.55
5	22506	5.11	36.55
5	23063	5.21	36.55
5	23620	5.31	36.55
5	24177	5.41	36.55
5	24734	5.51	36.55
5	25291	5.61	36.55
5	25848	5.71	36.55
5	26405	5.81	36.55
5	26962	5.91	36.55
5	27527	6.01	36.55
5	28084	6.11	36.55
5	28641	6.21	36.55
5	29198	6.31	36.55
5	29755	6.41	36.55
5	30312	6.51	36.55
5	30869	6.61	36.55
5	31426	6.71	36.55
5	31983	6.81	36.55
5	32540	6.91	36.55
5	33105	7.01	36.55
5	33662	7.11	36.55
5	34219	7.21	36.55
5	34776	7.31	36.55
5	35333	7.41	36.55
5	35890	7.51	36.55
5	36447	7.61	36.55
5	37004	7.71	36.55
5	37561	7.81	36.55
5	38118	7.91	36.55
5	38683	8.01	36.55
5	39240	8.11	36.55
5	39797	8.21	36.55
5	40354	8.31	36.55
5	40911	8.41	36.55
5	41468	8.51	36.55
5	42025	8.61	36.55
5	42582	8.71	36.55
5	43139	8.81	36.55
5	43696	8.91	36.55
5	44261	9.01	36.55
5	44818	9.11	36.55
5	45375	9.21	36.55
5	45932	9.31	36.55
5	46489	9.41	36.55
5	47046	9.51	36.55
5	47603	9.61	36.55
5	48160	9.71	36.55
5	48717	9.81	36.55
5	49274	9.91	36.55
5	49839	10.01	36.55
5	50396	10.11	36.55
5	50953	10.21	36.55
5	51510	10.31	36.55
5	52067	10.41	36.55
5	52624	10.51	36.55
5	53181	10.61	36.55
5	53738	10.71	36.55
5	54295	10.81	36.55
5	54852	10.91	36.55
5	55417	11.01	36.55
5	55974	11.11	36.55
5	56531	11.21	36.55
5	57088	11.31	36.55
5	57645	11.41	36.55
5	58202	11.51	36.55
5	58759	11.61	36.55
5	59316	11.71	36.55
5	59873	11.81	36.55
5	60430	11.91	36.55
5	60995	12.01	36.55
5	61552	12.11	36.55
5	62109	12.21	36.55
5	62666	12.31	36.55
5	63223	12.41	36.55
5	63780	12.51	36.55
5	64337	12.61	36.55
5	64894	12.71	36.55
5	65451	12.81	36.55
5	66008	12.91	36.55
5	66573	13.01	36.55
5	67130	13.11	36.55
5	67687	13.21	36.55
5	68244	13.31	36.55
5	68801	13.41	36.55
5	69358	13.51	36.55
5	69915	13.61	36.55
5	70472	13.71	36.55
5	71029	13.81	36.55
5	71586	13.91	36.55
5	72151	14.01	36.55
5	72708	14.11	36.55
5	73265	14.21	36.55
5	73822	14.31	36.55
5	74379	14.41	36.55
5	74936	14.51	36.55
5	75493	14.61	36.55
5	76050	14.71	36.55
5	76607	14.81	36.55
5	77164	14.91	36.55
5	77729	15.01	36.55
5	78286	15.11	36.55
5	78843	15.21	36.55
5	79400	15.31	36.55
5	79957	15.41	36.55
5	80514	15.51	36.55
5	81071	15.61	36.55
5	81628	15.71	36.55
5	82185	15.81	36.55
5	82742	15.91	36.55
5	83307	16.01	36.55
5	83864	16.11	36.55
5	84421	16.21	36.55
5	84978	16.31	36.55
5	85535	16.41	36.55
5	86092	16.51	36.55
5	86649	16.61	36.55
5	87206	16.71	36.55
5	87763	16.81	36.55
5	88320	16.91	36.55
5	88885	17.01	36.55
5	89442	17.11	36.55
5	89999	17.21	36.55
5	90556	17.31	36.55
5	91113	17.41	36.55
5	91670	17.51	36.55
5	92227	17.61	36.55
5	92784	17.71	36.55
5	93341	17.81	36.55
5	93898	17.91	36.55
5	94463	18.01	36.55
5	95020	18.11	36.55
5	95577	18.21	36.55
5	96134	18.31	36.55
5	96691	18.41	36.55
5	97248	18.51	36.55
5	97805	18.61	36.55
5	98362	18.71	36.55
5	98919	18.81	36.55
5	99476	18.91	36.55
5	100041	19.01	36.55
5	100598	19.11	36.55
5	101155	19.21	36.55
5	101712	19.31	36.55
5	102269	19.41	36.55
5	102826	19.51	36.55
5	103383	19.61	36.55
5	103940	19.71	36.55
5	104497	19.81	36.55
5	105054	19.91	36.55
5	105619	20.01	36.55
5	106176	20.11	36.55
5	106733	20.21	36.55
5	107290	20.31	36.55
5	107847	20.41	36.55
5	108404	20.51	36.55
5	108961	20.61	36.55
5	109518	20.71	36.55
5	110075	20.81	36.55
5	110632	20.91	36.55
5	111197	21.01	36.55
5	111754	21.11	36.55
5	112311	21.21	36.55
5	112868	21.31	36.55
5	113425	21.41	36.55
5	113982	21.51	36.55
5	114539	21.61	36.55
5	115096	21.71	36.55
5	115653	21.81	36.55
5	116210	21.91	36.55
5	116775	22.01	36.55
5	117332	22.11	36.55
5	117889	22.21	36.55
5	118446	22.31	36.55
5	119003	22.41	36.55
5	119560	22.51	36.55
5	120117	22.61	36.55
5	120674	22.71	36.55
5	121231	22.81	36.55
5	121788	22.91	36.55
5	122353	23.01	36.55
5	122910	23.11	36.55
5	123467	23.21	36.55
5	124024	23.31	36.55
5	124581	23.41	36.55
5	125138	23.51	36.55
5	125695	23.61	36.55
5	126252	23.71	36.55
5	126809	23.81	36.55
5	127366	23.91	36.55
5	127931	24.01	36.55
5	128488	24.11	36.55
5	129045	24.21	36.55
5	129602	24.31	36.55
5	130159	24.41	36.55
5	130716	24.51	36.55
5	131273	24.61	36.55
5	131830	24.71	36.55
5	132387	24.81	36.55
5	132944	24.91	36.55
5	133509	25.01	36.55
5	134066	25.11	36.55
5	134623	25.21	36.55
5	135180	25.31	36.55
5	135737	25.41	36.55
5	136294	25.51	36.55
5	136851	25.61	36.55
5	137408	25.71	36.55
5	137965	25.81	36.55
5	138522	25.91	36.55
5	139087	26.01	36.55
5	139644	26.11	36.55
5	140201	26.21	36.55
5	140758	26.31	36.55
5	141315	26.41	36.55
5	141872	26.51	36.55
5	142429	26.61	36.55
5	142986	26.71	36.55
5	143543	26.81	36.55
5	144100	26.91	36.55
5	144665	27.01	36.55
5	145222	27.11	36.55
5	145779	27.21	36.55
5	146336	27.31	36.55
5	146893	27.41	36.55
5	147450	27.51	36.55
5	148007	27.61	36.55
5	148564	27.71	36.55
5	149121	27.81	36.55
5	149678	27.91	36.55
5	150243	28.01	36.55
5	150800	28.11	36.55
5	151357	28.21	36.55
5	151914	28.31	36.55
5	152471	28.41	36.55
5	153028	28.51	36.55
5	153585	28.61	36.55
5	154142	28.71	36.55
5	154699	28.81	36.55
5	155256	28.91	36.55
5	155821	29.01	36.55
5	156378	29.11	36.55
5	156935	29.21	36.55
5	157492	29.31	36.55
5	158049	29.41	36.55
5	158606	29.51	36.55
5	159163	29.61	36.55
5	159720	29.71	36.55
5	160277	29.81	36.55
5	160834	29.91	36.55
5	161399	30.01	36.55
5	161956	30.11	36.55
5	162513	30.21	36.55
5	163070	30.31	36.55
5	163627	30.41	36.55
5	164184	30.51	36.55
5	164741	30.61	36.55
5	165298	30.71	36.55
5	165855	30.81	36.55
5	166412	30.91	36.55
5	166977	31.01	36.55
5	167534	31.11	36.55
5	168091	31.21	36.55
5	168648	31.31	36.55
5	169205	31.41	36.55
5	169762	31.51	36.55
5	170319	31.61	36.55
5	170876	31.71	36.55
5	171433	31.81	36.55
5	171990	31.91	36.55
5	172555	32.01	36.55
5	173112	32.11	36.55
5	173669	32.21	36.55
5	174226	32.31	36.55
5	174783	32.41	36.55
5	175340	32.51	36.55
5	175897	32.61	36.55
5	176454	32.71	36.55
5	177011	32.81	36.55
5	177568	32.91	36.55
5	178133	33.01	36.55
5	178690	33.11	36.55
5	179247	33.21	36.55
5	179804	33.31	36.55
5	180361	33.41	36.55
5	180918	33.51	36.55
5	181475	33.61	36.55
5	182032	33.71	36.55
5	182589	33.81	36.55
5	183146	33.91	36.55
5	183711	34.01	36.55
5	184268	34.11	36.55
5	184825	34.21	36.55
5	185382	34.31	36.55
5	185939	34.41	36.55
5	186496	34.51	36.55
5	187053	34.61	36.55
5	187610	34.71	36.55
5	188167	34.81	36.55
5	188724	34.91	36.55
5	189289	35.01	36.55
5	189846	35.11	36.55
5	190403	35.21	36.55
5	190960	35.31	36.55
5	191517	35.41	36.55
5	192074	35.51	36.55
5	192631	35.61	36.55
5	193188	35.71	36.55
5	193745	35.81	36.55
5	194302	35.91	36.55
5	194867	36.01	36.55
5	195424	36.11	36.55
5	195981	36.21	36.55
5	196538	36.31	36.55
5	197095	36.41	36.55
5	197652	36.51	36.55
5	198209	36.61	36.55
5	198766	36.71	36.55
5	199323	36.81	36.55
5	199880	36.91	36.55
5	200445	37.01	36.55
5	201002	37.11	36.55
5	201559	37.21	36.55
5	202116	37.31	36.55
5	202673	37.41	36.55
5	203230	37.51	36.55
5	203787	37.61	36.55
5	204344	37.71	36.55
5	204901	37.81	36.55
5	205458	37.91	36.55
5	206023	38.01	36.55
5	206580	38.11	36.55
5	207137	38.21	36.55
5	207694	38.31	36.55
5	208251	38.41	36.55
4	232	1.11	208.73485145556
4	788	1.21	210.12374038595
4	1344	1.31	211.51262931499
4	1900	1.41	212.90151824219
4	2456	1.51	214.2904071672
4	3012	1.61	215.67929608976
4	3568	1.71	217.06818500972
4	4124	1.81	218.45707392697
4	4680	1.91	219.8459628415
4	5244	2.01	221.23485175334
4	5800	2.11	222.62374066256
4	6356	2.21	224.01262956926
4	6912	2.31	225.40151847358
4	7468	2.41	226.79040737567
4	8024	2.51	228.17929627569
4	8580	2.61	229.56818517382
4	9136	2.71	230.95707407023
4	9692	2.81	232.34596296508
4	10248	2.91	233.73485185857
4	10812	3.01	235.12374075084
4	11368	3.11	236.51262964206
4	11924	3.21	237.90151853237
4	12480	3.31	239.29040742191
4	13036	3.41	240.67929631081
4	13592	3.51	242.06818519919
4	14148	3.61	243.45707408714
4	14704	3.71	244.84596297475
4	15260	3.81	246.23485186212
4	15816	3.91	247.62374074932
4	16380	4.01	249.0126296364
4	16936	4.11	250.40151852342
4	17492	4.21	251.79040741042
4	18048	4.31	253.17929629744
4	18604	4.41	254.56818518451
4	19160	4.51	255.95707407166
4	19716	4.61	257.34596295889
4	20272	4.71	258.73485184623
4	20828	4.81	260.12374073369
4	21384	4.91	261.51262962126
4	21949	5.01	262.90151850896
4	22506	5.11	264.29040876206
4	23063	5.21	265.67952551699
4	23620	5.31	267.06964236541
4	24177	5.41	268.46198393498
4	24734	5.51	269.85810020939
4	25291	5.61	271.25972605107
4	25848	5.71	272.66854694451
4	26405	5.81	274.08596493015
4	26962	5.91	275.51313030125
4	27527	6.01	276.95098669895
4	28084	6.11	278.40030823763
4	28641	6.21	279.86172996075
4	29198	6.31	281.33577282508
4	29755	6.41	282.82286419666
4	30312	6.51	284.3233546328
4	30869	6.61	285.83750188342
4	31426	6.71	287.36525951558
4	31983	6.81	288.90610101273
4	32540	6.91	290.45903759853
4	33105	7.01	292.02265456019
4	33662	7.11	293.5951547832
4	34219	7.21	295.17440834162
4	34776	7.31	296.7580069761
4	35333	7.41	298.34332274967
4	35890	7.51	299.9276427351
4	36447	7.61	301.50846912602
4	37004	7.71	303.08373477712
4	37561	7.81	304.65174390926
4	38118	7.91	306.21110539291
4	38683	8.01	307.76067801733
4	39240	8.11	309.2995255922
4	39797	8.21	310.82688011542
4	40354	8.31	312.34211155776
4	40911	8.41	313.84470307579
4	41468	8.51	315.33423067792
4	42025	8.61	316.81034654334
4	42582	8.71	318.27276533785
4	43139	8.81	319.72125298802
4	43696	8.91	321.15561747213
4	44261	9.01	322.57570126545
4	44818	9.11	323.98137514287
4	45375	9.21	325.37253309478
4	45932	9.31	326.74908815637
4	46489	9.41	328.11096898621
4	47046	9.51	329.45811932229
4	47603	9.61	330.79073446499
4	48160	9.71	332.10967573563
4	48717	9.81	333.4164348966
4	49274	9.91	334.71302906097
4	49839	10.01	336.00189606822
4	50396	10.11	337.28579163521
4	50953	10.21	338.56768852118
4	51510	10.31	339.85051494006
4	52067	10.41	341.13679220098
4	52624	10.51	342.42859512982
4	53181	10.61	343.72762580644
4	53738	10.71	345.03528052916
4	54295	10.81	346.35270474894
4	54852	10.91	347.68083813453
4	55417	11.01	349.02045154158
4	55974	11.11	350.37217734023
4	56531	11.21	351.73653429423
4	57088	11.31	353.11394797055
4	57645	11.41	354.50476748232
4	58202	11.51	355.90927922393
4	58759	11.61	357.32771813851
4	59316	11.71	358.76027696124
4	59873	11.81	360.20711380214
4	60430	11.91	361.66834356705
4	60995	12.01	363.14376122622
4	61552	12.11	364.63252146365
4	62109	12.21	366.13319517803
4	62666	12.31	367.64385647872
4	63223	12.41	369.16217147698
4	63780	12.51	370.6854875092
4	64337	12.61	372.2109223672
4	64894	12.71	373.73558730183
4	65451	12.81	375.25693653866
4	66008	12.91	376.77287097294
4	66573	13.01	378.28166860766
4	67130	13.11	379.78191680548
4	67687	13.21	381.27245671177
4	68244	13.31	382.75233766212
4	68801	13.41	384.22077978057
4	69358	13.51	385.67714329723
4	69915	13.61	387.12090337794
4	70472	13.71	388.55162947589
4	71029	13.81	389.96896839274
4	71586	13.91	391.37263038284
4	72151	14.01	392.76237775382
4	72708	14.11	394.13801551517
4	73265	14.21	395.49938370675
4	73822	14.31	396.84635110551
4	74379	14.41	398.17881084393
4	74936	14.51	399.49682945985
4	75493	14.61	400.8010222593
4	76050	14.71	402.0926329769
4	76607	14.81	403.37344742999
4	77164	14.91	404.64569910277
4	77729	15.01	405.91197459734
4	78286	15.11	407.17511983207
4	78843	15.21	408.43807768072
4	79400	15.31	409.7035572965
4	79957	15.41	410.97380041517
4	80514	15.51	412.25064604083
4	81071	15.61	413.53560279738
4	81628	15.71	414.82990828187
4	82185	15.81	416.13457775493
4	82742	15.91	417.4504440839
4	83307	16.01	418.77819051007
4	83864	16.11	420.1183775293
4	84421	16.21	421.47146494338
4	84978	16.31	422.83782994996
4	85535	16.41	424.21778198246
4	86092	16.51	425.61157488409
4	86649	16.61	427.01941689468
4	87206	16.71	428.44147884341
4	87763	16.81	429.87790086973
4	88320	16.91	431.32879692232
4	88885	17.01	432.79407049718
4	89442	17.11	434.27302322407
4	89999	17.21	435.76434144173
4	90556	17.31	437.26618585334
4	91113	17.41	438.77628394684
4	91670	17.51	440.29202264766
4	92227	17.61	441.81054048839
4	92784	17.71	443.32891182396
4	93341	17.81	444.84448439019
4	93898	17.91	446.35506621525
4	94463	18.01	447.85885911878
4	95020	18.11	449.35438796657
4	95577	18.21	450.84044263479
4	96134	18.31	452.31603040039
4	96691	18.41	453.78033688473
4	97248	18.51	455.23269401366
4	97805	18.61	456.67255373369
4	98362	18.71	458.09946645008
4	98919	18.81	459.51306333855
4	99476	18.91	460.91304183471
4	100041	19.01	462.2991537304
4	100598	19.11	463.67119540846
4	101155	19.21	465.0289998319
4	101712	19.31	466.37242997224
4	102269	19.41	467.70137433708
4	102826	19.51	469.01591809234
4	103383	19.61	470.31672877499
4	103940	19.71	471.60509411922
4	104497	19.81	472.88283358475
4	105054	19.91	474.1522051982
4	105619	20.01	475.41581219884
4	106176	20.11	476.6765102649
4	106733	20.21	477.93723138835
4	107290	20.31	479.20064886534
4	107847	20.41	480.46897306686
4	108404	20.51	481.744017267
4	108961	20.61	483.0272689821
4	109518	20.71	484.31994849364
4	110075	20.81	485.62305685747
4	110632	20.91	486.93741528803
4	111197	21.01	488.26369746723
4	111754	21.11	489.60245604883
4	112311	21.21	490.95414440146
4	112868	21.31	492.31913444525
4	113425	21.41	493.69773128428
4	113982	21.51	495.09018521015
4	114539	21.61	496.49670154915
4	115096	21.71	497.91744874037
4	115653	21.81	499.3525649625
4	116210	21.91	500.80216262156
4	116775	22.01	502.26615242534
4	117332	22.11	503.7438554141
4	117889	22.21	505.23397422764
4	118446	22.31	506.73468203887
4	119003	22.41	508.24371543886
4	119560	22.51	509.75846753104
4	120117	22.61	511.27608048091
4	120674	22.71	512.79362464115
4	121231	22.81	514.30843450672
4	121788	22.91	515.81830652281
4	122353	23.01	517.32143300696
4	122910	23.11	518.81633102995
4	123467	23.21	520.30178407333
4	124024	23.31	521.77679416823
4	124581	23.41	523.2405426326
4	125138	23.51	524.69235786201
4	125695	23.61	526.1316889069
4	126252	23.71	527.55808379675
4	126809	23.81	528.9711717583
4	127366	23.91	530.37064862834
4	127931	24.01	531.75626488711
4	128488	24.11	533.12781584147
4	129045	24.21	534.48513357178
4	129602	24.31	535.82808032543
4	130159	24.41	537.15654403487
4	130716	24.51	538.47061246066
4	131273	24.61	539.77096032344
4	131830	24.71	541.05888141109
4	132387	24.81	542.33619981652
4	132944	24.91	543.60517695116
4	133509	25.01	544.8684183542
4	134066	25.11	546.12878105979
4	134623	25.21	547.38919558514
4	135180	25.31	548.65233032634
4	135737	25.41	549.92039136748
4	136294	25.51	551.19518846591
4	136851	25.61	552.47820625298
4	137408	25.71	553.77066264351
4	137965	25.81	555.07355675184
4	138522	25.91	556.38770819973
4	139087	26.01	557.71378936247
4	139644	26.11	559.05235182203
4	140201	26.21	560.40384806771
4	140758	26.31	561.76864929834
4	141315	26.41	563.14706002627
4	141872	26.51	564.53933005766
4	142429	26.61	565.94566432059
4	142986	26.71	567.36623092745
4	143543	26.81	568.80116778897
4	144100	26.91	570.25058709828
4	144665	27.01	571.71440052642
4	145222	27.11	573.1919317796
4	145779	27.21	574.68188574425
4	146336	27.31	576.18243731278
4	146893	27.41	577.69132433249
4	147450	27.51	579.20594076046
4	148007	27.61	580.72342926552
4	148564	27.71	582.24085965328
4	149121	27.81	583.75556460051
4	149678	27.91	585.26533896175
4	150243	28.01	586.76837374965
4	150800	28.11	588.26318496451
4	151357	28.21	589.74855520972
4	151914	28.31	591.22348579601
4	152471	28.41	592.68715745036
4	153028	28.51	594.13889808353
4	153585	28.61	595.57815634826
4	154142	28.71	597.00447994776
4	154699	28.81	598.41749784113
4	155256	28.91	599.81690564558
4	155821	29.01	601.20245366124
4	156378	29.11	602.57393704723
4	156935	29.21	603.93118776266
4	157492	29.31	605.27406795551
4	158049	29.41	606.60246547922
4	158606	29.51	607.91646845184
4	159163	29.61	609.21675258336
4	159720	29.71	610.50461249537
4	160277	29.81	611.7818729189
4	160834	29.91	613.05079573159
4	161399	30.01	614.3139867894
4	161956	30.11	615.57430331329
4	162513	30.21	616.83467561744
4	163070	30.31	618.09777142322
4	163627	30.41	619.36579622443
4	164184	30.51	620.64055929417
4	164741	30.61	621.92354486653
4	165298	30.71	623.21597053045
4	165855	30.81	624.51883513292
4	166412	30.91	625.8329580764
4	166977	31.01	627.15901155628
4	167534	31.11	628.49754700691
4	168091	31.21	629.84901679653
4	168648	31.31	631.21379202466
4	169205	31.41	632.59217712214
4	169762	31.51	633.98442182832
4	170319	31.61	635.39073101642
4	170876	31.71	636.81127275386
4	171433	31.81	638.24618491445
4	171990	31.91	639.69557966204
4	172555	32.01	641.15936880031
4	173112	32.11	642.63687640262
4	173669	32.21	644.1268076648
4	174226	32.31	645.62733771607
4	174783	32.41	647.13620457674
4	175340	32.51	648.65080232143
4	175897	32.61	650.16827368832
4	176454	32.71	651.68568840766
4	177011	32.81	653.20037890584
4	177568	32.91	654.71013981833
4	178133	33.01	656.21316197807
4	178690	33.11	657.70796123795
4	179247	33.21	659.19332008041
4	179804	33.31	660.66823971699
4	180361	33.41	662.13190079326
4	180918	33.51	663.58363115323
4	181475	33.61	665.02287939487
4	182032	33.71	666.44919317644
4	182589	33.81	667.86220142019
4	183146	33.91	669.26159971311
4	183711	34.01	670.64713833051
4	184268	34.11	672.01861241114
4	184825	34.21	673.37585389745
4	185382	34.31	674.71872492371
4	185939	34.41	676.04711333249
4	186496	34.51	677.36110729107
4	187053	34.61	678.66138264566
4	187610	34.71	679.94923413271
4	188167	34.81	681.22648657113
4	188724	34.91	682.49540190273
4	189289	35.01	683.75858602712
4	189846	35.11	685.01889619097
4	190403	35.21	686.27926268053
4	190960	35.31	687.54235312422
4	191517	35.41	688.81037293456
4	192074	35.51	690.08513131794
4	192631	35.61	691.36811245377
4	193188	35.71	692.66053388609
4	193745	35.81	693.96339442509
4	194302	35.91	695.27751344301
4	194867	36.01	696.60356311047
4	195424	36.11	697.9420948415
4	195981	36.21	699.29356098766
4	196538	36.31	700.65833263479
4	197095	36.41	702.03671420251
4	197652	36.51	703.42895542095
4	198209	36.61	704.83526115581
4	198766	36.71	706.25579946829
4	199323	36.81	707.69070822714
4	199880	36.91	709.14009959215
4	200445	37.01	710.60388538527
4	201002	37.11	712.08138973045
4	201559	37.21	713.57131786609
4	202116	37.31	715.07184495406
4	202673	37.41	716.58070903847
4	203230	37.51	718.09530421015
4	203787	37.61	719.61277321682
4	204344	37.71	721.13018577834
4	204901	37.81	722.64487428663
4	205458	37.91	724.15463334699
4	206023	38.01	725.65765376761
4	206580	38.11	727.15245138108
4	207137	38.21	728.63780865318
4	207694	38.31	730.11272678179
4	208251	38.41	731.57638640128
3	232	1.11	13.888889309806
3	788	1.21	13.888889299984
3	1344	1.31	13.888889284553
3	1900	1.41	13.888889264797
3	2456	1.51	13.888889241849
3	3012	1.61	13.888889216692
3	3568	1.71	13.888889190176
3	4124	1.81	13.888889163019
3	4680	1.91	13.888889135825
3	5244	2.01	13.888889109087
3	5800	2.11	13.888889083203
3	6356	2.21	13.888889058484
3	6912	2.31	13.888889035164
3	7468	2.41	13.888889013409
3	8024	2.51	13.88888899333
3	8580	2.61	13.888888974985
3	9136	2.71	13.888888958391
3	9692	2.81	13.888888943532
3	10248	2.91	13.888888930362
3	10812	3.01	13.888888918814
3	11368	3.11	13.888888908804
3	11924	3.21	13.888888900236
3	12480	3.31	13.888888893003
3	13036	3.41	13.888888886995
3	13592	3.51	13.888888882101
3	14148	3.61	13.888888878208
3	14704	3.71	13.888888875206
3	15260	3.81	13.888888872989
3	15816	3.91	13.888888871455
3	16380	4.01	13.888888870509
3	16936	4.11	13.888888870063
3	17492	4.21	13.888888870035
3	18048	4.31	13.88888887035
3	18604	4.41	13.888888870941
3	19160	4.51	13.888888871748
3	19716	4.61	13.888888872717
3	20272	4.71	13.888888873802
3	20828	4.81	13.888888874963
3	21384	4.91	13.888888876165
3	21949	5.01	13.888888877379
3	22506	5.11	13.88895714287
3	23063	5.21	13.8931707169
3	23620	5.31	13.906886981158
3	24177	5.41	13.934167403487
3	24734	5.51	13.977833057683
3	25291	5.61	14.039174898244
3	25848	5.71	14.116438827352
3	26405	5.81	14.206769915256
3	26962	5.91	14.307820624663
3	27527	6.01	14.417665157344
3	28084	6.11	14.534723687999
3	28641	6.21	14.657700209627
3	29198	6.31	14.785531545087
3	29755	6.41	14.917345518821
3	30312	6.51	15.052425059448
3	30869	6.61	15.189500093972
3	31426	6.71	15.324463010101
3	31983	6.81	15.452496243768
3	32540	6.91	15.569092845265
3	33105	7.01	15.670136008044
3	33662	7.11	15.751967163808
3	34219	7.21	15.811442461837
3	34776	7.31	15.845977552212
3	35333	7.41	15.853603639796
3	35890	7.51	15.834314677718
3	36447	7.61	15.791543255453
3	37004	7.71	15.729508036896
3	37561	7.81	15.651669795801
3	38118	7.91	15.560867572035
3	38683	8.01	15.459430367125
3	39240	8.11	15.349268773515
3	39797	8.21	15.231950142466
3	40354	8.31	15.108760247923
3	40911	8.41	14.980753872353
3	41468	8.51	14.848796304763
3	42025	8.61	14.713597383517
3	42582	8.71	14.575739423308
3	43139	8.81	14.435700125008
3	43696	8.91	14.293871369713
3	44261	9.01	14.150574636415
3	44818	9.11	14.006073649857
3	45375	9.21	13.860584756185
3	45932	9.31	13.714285434593
3	46489	9.41	13.567321279832
3	47046	9.51	13.419909418317
3	47603	9.61	13.276568052228
3	48160	9.71	13.144199549998
3	48717	9.81	13.028740637906
3	49274	9.91	12.935077207518
3	49839	10.01	12.867053163966
3	50396	10.11	12.827492798447
3	50953	10.21	12.818184012284
3	51510	10.31	12.836987312871
3	52067	10.41	12.879360323559
3	52624	10.51	12.941068705856
3	53181	10.61	13.01863882738
3	53738	10.71	13.109221099712
3	54295	10.81	13.210477867837
3	54852	10.91	13.320491440438
3	55417	11.01	13.437688642703
3	55974	11.11	13.56077892335
3	56531	11.21	13.688703580829
3	57088	11.31	13.820594111122
3	57645	11.41	13.955738038437
3	58202	11.51	14.093550884467
3	58759	11.61	14.233553173427
3	59316	11.71	14.375351568173
3	59873	11.81	14.518623395246
3	60430	11.91	14.66269730263
3	60995	12.01	14.802538408274
3	61552	12.11	14.931758497807
3	62109	12.21	15.044820373205
3	62666	12.31	15.137065146099
3	63223	12.41	15.204725281664
3	63780	12.51	15.244924342721
3	64337	12.61	15.255706566207
3	64894	12.71	15.238438484058
3	65451	12.81	15.197324887205
3	66008	12.91	15.136649662907
3	66573	13.01	15.05992709079
3	67130	13.11	14.970040104174
3	67687	13.21	14.869353712503
3	68244	13.31	14.759808047257
3	68801	13.41	14.642994691995
3	69358	13.51	14.520219299584
3	69915	13.61	14.392552960135
3	70472	13.71	14.260874340597
3	71029	13.81	14.125904253911
3	71586	13.91	13.988234017746
3	72151	14.01	13.848348718545
3	72708	14.11	13.706646296149
3	73265	14.21	13.56345319983
3	73822	14.31	13.419037231692
3	74379	14.41	13.273657135565
3	74936	14.51	13.130441982788
3	75493	14.61	12.995670307401
3	76050	14.71	12.875370078417
3	76607	14.81	12.774633040977
3	77164	14.91	12.697604313193
3	77729	15.01	12.647485799739
3	78286	15.11	12.626530819682
3	78843	15.21	12.634779968798
3	79400	15.31	12.66849489927
3	79957	15.41	12.723100640181
3	80514	15.51	12.79484412192
3	81071	15.61	12.88064652021
3	81628	15.71	12.977982126792
3	82185	15.81	13.084778981187
3	82742	15.91	13.199337354141
3	83307	16.01	13.320262875649
3	83864	16.11	13.446411676648
3	84421	16.21	13.576845386097
3	84978	16.31	13.71079421291
3	85535	16.41	13.847626660274
3	86092	16.51	13.986824680856
3	86649	16.61	14.127963295405
3	87206	16.71	14.270693872916
3	87763	16.81	14.414730414535
3	88320	16.91	14.559787728906
3	88885	17.01	14.702082559026
3	89442	17.11	14.835117319103
3	89999	17.21	14.95304189545
3	90556	17.31	15.050921902539
3	91113	17.41	15.124749945874
3	91670	17.51	15.171443265846
3	92227	17.61	15.188857753955
3	92784	17.71	15.177461901473
3	93341	17.81	15.141165578244
3	93898	17.91	15.084442196173
3	94463	18.01	15.010961511109
3	95020	18.11	14.923734001024
3	95577	18.21	14.825229306406
3	96134	18.31	14.717473392626
3	96691	18.41	14.602128256938
3	97248	18.51	14.480557315958
3	97805	18.61	14.353879046192
3	98362	18.71	14.223010987939
3	98919	18.81	14.088705843826
3	99476	18.91	13.951581092168
3	100041	19.01	13.812143280257
3	100598	19.11	13.670807953298
3	101155	19.21	13.527916003097
3	101712	19.31	13.383747079665
3	102269	19.41	13.23857652977
3	102826	19.51	13.095945007457
3	103383	19.61	12.962270845178
3	103940	19.71	12.843470007216
3	104497	19.81	12.744535147797
3	105054	19.91	12.669524665226
3	105619	20.01	12.621565448378
3	106176	20.11	12.602842059212
3	106733	20.21	12.613074483492
3	107290	20.31	12.648416390373
3	107847	20.41	12.704356818615
3	108404	20.51	12.777195208837
3	108961	20.61	12.863895813439
3	109518	20.71	12.961968262042
3	110075	20.81	13.069369583537
3	110632	20.91	13.184423830048
3	111197	21.01	13.305756140585
3	111754	21.11	13.432238650273
3	112311	21.21	13.562946117079
3	112868	21.31	13.697119520272
3	113425	21.41	13.834136198489
3	113982	21.51	13.973485352538
3	114539	21.61	14.114747949169
3	115096	21.71	14.25758023517
3	115653	21.81	14.401700213177
3	116210	21.91	14.546829114103
3	116775	22.01	14.689336934087
3	117332	22.11	14.822775023755
3	117889	22.21	14.941251840502
3	118446	22.31	15.039796341815
3	119003	22.41	15.114369048335
3	119560	22.51	15.161859441787
3	120117	22.61	15.180097968285
3	120674	22.71	15.169434538294
3	121231	22.81	15.13373905661
3	121788	22.91	15.07750857388
3	122353	23.01	15.004432237952
3	122910	23.11	14.917536434993
3	123467	23.21	14.819303855751
3	124024	23.31	14.711771171359
3	124581	23.41	14.596609161518
3	125138	23.51	14.475188447516
3	125695	23.61	14.348633416197
3	126252	23.71	14.217866456394
3	126809	23.81	14.083644248221
3	127366	23.91	13.946587532923
3	127931	24.01	13.807205534522
3	128488	24.11	13.665915994083
3	129045	24.21	13.523061604774
3	129602	24.31	13.378923494356
3	130159	24.41	13.233779163163
3	130716	24.51	13.091225460604
3	131273	24.61	12.957699786749
3	131830	24.71	12.839102746868
3	132387	24.81	12.74041340342
3	132944	24.91	12.665678256479
3	133509	25.01	12.618013899389
3	134066	25.11	12.599595455496
3	134623	25.21	12.61009895213
3	135180	25.31	12.645663232756
3	135737	25.41	12.701786084922
3	136294	25.51	12.774774126299
3	136851	25.61	12.861597496972
3	137408	25.71	12.959770656513
3	137965	25.81	13.067254596054
3	138522	25.91	13.182376618139
3	139087	26.01	13.303764528253
3	139644	26.11	13.43029264896
3	140201	26.21	13.561037532686
3	140758	26.31	13.695241630788
3	141315	26.41	13.83228348952
3	141872	26.51	13.971653300362
3	142429	26.61	14.112932842758
3	142986	26.71	14.255779030189
3	143543	26.81	14.39991041221
3	144100	26.91	14.545049017674
3	144665	27.01	14.687585693517
3	145222	27.11	14.821078865042
3	145779	27.21	14.939631290159
3	146336	27.31	15.03826688263
3	146893	27.41	15.112941747789
3	147450	27.51	15.160541546767
3	148007	27.61	15.17889322306
3	148564	27.71	15.168330374919
3	149121	27.81	15.132717405387
3	149678	27.91	15.076554611359
3	150243	28.01	15.003533803743
3	150800	28.11	14.91668355334
3	151357	28.21	14.818488343061
3	151914	28.31	14.710986314233
3	152471	28.41	14.595849452632
3	153028	28.51	14.474449368947
3	153585	28.61	14.347911261671
3	154142	28.71	14.21715818548
3	154699	28.81	14.082947366705
3	155256	28.91	13.945899994678
3	155821	29.01	13.806525661016
3	156378	29.11	13.665242408331
3	156935	29.21	13.522393177171
3	157492	29.31	13.378259298231
3	158049	29.41	13.23311856794
3	158606	29.51	13.090575573438
3	159163	29.61	12.957070340203
3	159720	29.71	12.838501358414
3	160277	29.81	12.739845818791
3	160834	29.91	12.665148582879
3	161399	30.01	12.617524826186
3	161956	30.11	12.59914837223
3	162513	30.21	12.609689194843
3	163070	30.31	12.645284095771
3	163627	30.41	12.701432067251
3	164184	30.51	12.774440715214
3	164741	30.61	12.861280990466
3	165298	30.71	12.959468017648
3	165855	30.81	13.066963333485
3	166412	30.91	13.182094688096
3	166977	31.01	13.303490254132
3	167534	31.11	13.43002465536
3	168091	31.21	13.560774691303
3	168648	31.31	13.694983016015
3	169205	31.41	13.832028342041
3	169762	31.51	13.971400997271
3	170319	31.61	14.112682873057
3	170876	31.71	14.255530974679
3	171433	31.81	14.399663927005
3	171990	31.91	14.544803868766
3	172555	32.01	14.687344518393
3	173112	32.11	14.82084527549
3	173669	32.21	14.939408113045
3	174226	32.31	15.038056250216
3	174783	32.41	15.112745184271
3	175340	32.51	15.16036005018
3	175897	32.61	15.178727309066
3	176454	32.71	15.16817831271
3	177011	32.81	15.132576706465
3	177568	32.91	15.07642323429
3	178133	33.01	15.003410073841
3	178690	33.11	14.91656609678
3	179247	33.21	14.818376032824
3	179804	33.31	14.710878225775
3	180361	33.41	14.595744827503
3	180918	33.51	14.474347584953
3	181475	33.61	14.347811808398
3	182032	33.71	14.21706064421
3	182589	33.81	14.082851393943
3	183146	33.91	13.94580530864
3	183711	34.01	13.806432030538
3	184268	34.11	13.665149643781
3	184825	34.21	13.522301122983
3	185382	34.31	13.378167826789
3	185939	34.41	13.233027592401
3	186496	34.51	13.090486072583
3	187053	34.61	12.956983654378
3	187610	34.71	12.838418536677
3	188167	34.81	12.739767652433
3	188724	34.91	12.665075637532
3	189289	35.01	12.617457472225
3	189846	35.11	12.59908680102
3	190403	35.21	12.609632764073
3	190960	35.31	12.645231881954
3	191517	35.41	12.701383312803
3	192074	35.51	12.774394798654
3	192631	35.61	12.861237401962
3	193188	35.71	12.959426338962
3	193745	35.81	13.066923221514
3	194302	35.91	13.182055861377
3	194867	36.01	13.303452481767
3	195424	36.11	13.429987747933
3	195981	36.21	13.560738493426
3	196538	36.31	13.694947400217
3	197095	36.41	13.83199320375
3	197652	36.51	13.971366250702
3	198209	36.61	14.112648447836
3	198766	36.71	14.255496813076
3	199323	36.81	14.39962998166
3	199880	36.91	14.544770107452
3	200445	37.01	14.68731130434
3	201002	37.11	14.820813106103
3	201559	37.21	14.939377377634
3	202116	37.31	15.038027242431
3	202673	37.41	15.11271811402
3	203230	37.51	15.160335054909
3	203787	37.61	15.178704459793
3	204344	37.71	15.168157371071
3	204901	37.81	15.13255732975
3	205458	37.91	15.076405141359
3	206023	38.01	15.003393034059
3	206580	38.11	14.916549920947
3	207137	38.21	14.81836056573
3	207694	38.31	14.710863340094
3	208251	38.41	14.595730418783
1	232	1.11	0
1	788	1.21	0
1	1344	1.31	0
1	1900	1.41	0
1	2456	1.51	0
1	3012	1.61	0
1	3568	1.71	0
1	4124	1.81	0
1	4680	1.91	0
1	5244	2.01	0
1	5800	2.11	0
1	6356	2.21	0
1	6912	2.31	0
1	7468	2.41	0
1	8024	2.51	0
1	8580	2.61	0
1	9136	2.71	0
1	9692	2.81	0
1	10248	2.91	0
1	10812	3.01	0
1	11368	3.11	0
1	11924	3.21	0
1	12480	3.31	0
1	13036	3.41	0
1	13592	3.51	0
1	14148	3.61	0
1	14704	3.71	0
1	15260	3.81	0
1	15816	3.91	0
1	16380	4.01	0
1	16936	4.11	0
1	17492	4.21	0
1	18048	4.31	0
1	18604	4.41	0
1	19160	4.51	0
1	19716	4.61	0
1	20272	4.71	0
1	20828	4.81	0
1	21384	4.91	0
1	21949	5.01	0
1	22506	5.11	0
1	23063	5.21	0
1	23620	5.31	0
1	24177	5.41	0
1	24734	5.51	0
1	25291	5.61	0
1	25848	5.71	0
1	26405	5.81	0
1	26962	5.91	0
1	27527	6.01	0
1	28084	6.11	0
1	28641	6.21	0
1	29198	6.31	0
1	29755	6.41	0
1	30312	6.51	0
1	30869	6.61	0
1	31426	6.71	0
1	31983	6.81	0
1	32540	6.91	0
1	33105	7.01	0
1	33662	7.11	0
1	34219	7.21	0
1	34776	7.31	0
1	35333	7.41	0
1	35890	7.51	0
1	36447	7.61	0
1	37004	7.71	0
1	37561	7.81	0
1	38118	7.91	0
1	38683	8.01	0
1	39240	8.11	0
1	39797	8.21	0
1	40354	8.31	0
1	40911	8.41	0
1	41468	8.51	0
1	42025	8.61	0
1	42582	8.71	0
1	43139	8.81	0
1	43696	8.91	0
1	44261	9.01	0
1	44818	9.11	0
1	45375	9.21	0
1	45932	9.31	0
1	46489	9.41	0
1	47046	9.51	0
1	47603	9.61	0
1	48160	9.71	0
1	48717	9.81	0
1	49274	9.91	0
1	49839	10.01	0
1	50396	10.11	0
1	50953	10.21	0
1	51510	10.31	0
1	52067	10.41	0
1	52624	10.51	0
1	53181	10.61	0
1	53738	10.71	0
1	54295	10.81	0
1	54852	10.91	0
1	55417	11.01	0
1	55974	11.11	0
1	56531	11.21	0
1	57088	11.31	0
1	57645	11.41	0
1	58202	11.51	0
1	58759	11.61	0
1	59316	11.71	0
1	59873	11.81	0
1	60430	11.91	0
1	60995	12.01	0
1	61552	12.11	0
1	62109	12.21	0
1	62666	12.31	0
1	63223	12.41	0
1	63780	12.51	0
1	64337	12.61	0
1	64894	12.71	0
1	65451	12.81	0
1	66008	12.91	0
1	66573	13.01	0
1	67130	13.11	0
1	67687	13.21	0
1	68244	13.31	0
1	68801	13.41	0
1	69358	13.51	0
1	69915	13.61	0
1	70472	13.71	0
1	71029	13.81	0
1	71586	13.91	0
1	72151	14.01	0
1	72708	14.11	0
1	73265	14.21	0
1	73822	14.31	0
1	74379	14.41	0
1	74936	14.51	0
1	75493	14.61	0
1	76050	14.71	0
1	76607	14.81	0
1	77164	14.91	0
1	77729	15.01	0
1	78286	15.11	0
1	78843	15.21	0
1	79400	15.31	0
1	79957	15.41	0
1	80514	15.51	0
1	81071	15.61	0
1	81628	15.71	0
1	82185	15.81	0
1	82742	15.91	0
1	83307	16.01	0
1	83864	16.11	0
1	84421	16.21	0
1	84978	16.31	0
1	85535	16.41	0
1	86092	16.51	0
1	86649	16.61	0
1	87206	16.71	0
1	87763	16.81	0
1	88320	16.91	0
1	88885	17.01	0
1	89442	17.11	0
1	89999	17.21	0
1	90556	17.31	0
1	91113	17.41	0
1	91670	17.51	0
1	92227	17.61	0
1	92784	17.71	0
1	93341	17.81	0
1	93898	17.91	0
1	94463	18.01	0
1	95020	18.11	0
1	95577	18.21	0
1	96134	18.31	0
1	96691	18.41	0
1	97248	18.51	0
1	97805	18.61	0
1	98362	18.71	0
1	98919	18.81	0
1	99476	18.91	0
1	100041	19.01	0
1	100598	19.11	0
1	101155	19.21	0
1	101712	19.31	0
1	102269	19.41	0
1	102826	19.51	0
1	103383	19.61	0
1	103940	19.71	0
1	104497	19.81	0
1	105054	19.91	0
1	105619	20.01	0
1	106176	20.11	0
1	106733	20.21	0
1	107290	20.31	0
1	107847	20.41	0
1	108404	20.51	0
1	108961	20.61	0
1	109518	20.71	0
1	110075	20.81	0
1	110632	20.91	0
1	111197	21.01	0
1	111754	21.11	0
1	112311	21.21	0
1	112868	21.31	0
1	113425	21.41	0
1	113982	21.51	0
1	114539	21.61	0
1	115096	21.71	0
1	115653	21.81	0
1	116210	21.91	0
1	116775	22.01	0
1	117332	22.11	0
1	117889	22.21	0
1	118446	22.31	0
1	119003	22.41	0
1	119560	22.51	0
1	120117	22.61	0
1	120674	22.71	0
1	121231	22.81	0
1	121788	22.91	0
1	122353	23.01	0
1	122910	23.11	0
1	123467	23.21	0
1	124024	23.31	0
1	124581	23.41	0
1	125138	23.51	0
1	125695	23.61	0
1	126252	23.71	0
1	126809	23.81	0
1	127366	23.91	0
1	127931	24.01	0
1	128488	24.11	0
1	129045	24.21	0
1	129602	24.31	0
1	130159	24.41	0
1	130716	24.51	0
1	131273	24.61	0
1	131830	24.71	0
1	132387	24.81	0
1	132944	24.91	0
1	133509	25.01	0
1	134066	25.11	0
1	134623	25.21	0
1	135180	25.31	0
1	135737	25.41	0
1	136294	25.51	0
1	136851	25.61	0
1	137408	25.71	0
1	137965	25.81	0
1	138522	25.91	0
1	139087	26.01	0
1	139644	26.11	0
1	140201	26.21	0
1	140758	26.31	0
1	141315	26.41	0
1	141872	26.51	0
1	142429	26.61	0
1	142986	26.71	0
1	143543	26.81	0
1	144100	26.91	0
1	144665	27.01	0
1	145222	27.11	0
1	145779	27.21	0
1	146336	27.31	0
1	146893	27.41	0
1	147450	27.51	0
1	148007	27.61	0
1	148564	27.71	0
1	149121	27.81	0
1	149678	27.91	0
1	150243	28.01	0
1	150800	28.11	0
1	151357	28.21	0
1	151914	28.31	0
1	152471	28.41	0
1	153028	28.51	0
1	153585	28.61	0
1	154142	28.71	0
1	154699	28.81	0
1	155256	28.91	0
1	155821	29.01	0
1	156378	29.11	0
1	156935	29.21	0
1	157492	29.31	0
1	158049	29.41	0
1	158606	29.51	0
1	159163	29.61	0
1	159720	29.71	0
1	160277	29.81	0
1	160834	29.91	0
1	161399	30.01	0
1	161956	30.11	0
1	162513	30.21	0
1	163070	30.31	0
1	163627	30.41	0
1	164184	30.51	0
1	164741	30.61	0
1	165298	30.71	0
1	165855	30.81	0
1	166412	30.91	0
1	166977	31.01	0
1	167534	31.11	0
1	168091	31.21	0
1	168648	31.31	0
1	169205	31.41	0
1	169762	31.51	0
1	170319	31.61	0
1	170876	31.71	0
1	171433	31.81	0
1	171990	31.91	0
1	172555	32.01	0
1	173112	32.11	0
1	173669	32.21	0
1	174226	32.31	0
1	174783	32.41	0
1	175340	32.51	0
1	175897	32.61	0
1	176454	32.71	0
1	177011	32.81	0
1	177568	32.91	0
1	178133	33.01	0
1	178690	33.11	0
1	179247	33.21	0
1	179804	33.31	0
1	180361	33.41	0
1	180918	33.51	0
1	181475	33.61	0
1	182032	33.71	0
1	182589	33.81	0
1	183146	33.91	0
1	183711	34.01	0
1	184268	34.11	0
1	184825	34.21	0
1	185382	34.31	0
1	185939	34.41	0
1	186496	34.51	0
1	187053	34.61	0
1	187610	34.71	0
1	188167	34.81	0
1	188724	34.91	0
1	189289	35.01	0
1	189846	35.11	0
1	190403	35.21	0
1	190960	35.31	0
1	191517	35.41	0
1	192074	35.51	0
1	192631	35.61	0
1	193188	35.71	0
1	193745	35.81	0
1	194302	35.91	0
1	194867	36.01	0
1	195424	36.11	0
1	195981	36.21	0
1	196538	36.31	0
1	197095	36.41	0
1	197652	36.51	0
1	198209	36.61	0
1	198766	36.71	0
1	199323	36.81	0
1	199880	36.91	0
1	200445	37.01	0
1	201002	37.11	0
1	201559	37.21	0
1	202116	37.31	0
1	202673	37.41	0
1	203230	37.51	0
1	203787	37.61	0
1	204344	37.71	0
1	204901	37.81	0
1	205458	37.91	0
1	206023	38.01	0
1	206580	38.11	0
1	207137	38.21	0
1	207694	38.31	0
1	208251	38.41	0
0	232	1.11	-1
0	788	1.21	-1
0	1344	1.31	-1
0	1900	1.41	-1
0	2456	1.51	-1
0	3012	1.61	-1
0	3568	1.71	-1
0	4124	1.81	-1
0	4680	1.91	-1
0	5244	2.01	-1
0	5800	2.11	-1
0	6356	2.21	-1
0	6912	2.31	-1
0	7468	2.41	-1
0	8024	2.51	-1
0	8580	2.61	-1
0	9136	2.71	-1
0	9692	2.81	-1
0	10248	2.91	-1
0	10812	3.01	-1
0	11368	3.11	-1
0	11924	3.21	-1
0	12480	3.31	-1
0	13036	3.41	-1
0	13592	3.51	-1
0	14148	3.61	-1
0	14704	3.71	-1
0	15260	3.81	-1
0	15816	3.91	-1
0	16380	4.01	-1
0	16936	4.11	-1
0	17492	4.21	-1
0	18048	4.31	-1
0	18604	4.41	-1
0	19160	4.51	-1
0	19716	4.61	-1
0	20272	4.71	-1
0	20828	4.81	-1
0	21384	4.91	-1
0	21949	5.01	-1
0	22506	5.11	-1
0	23063	5.21	-1
0	23620	5.31	-1
0	24177	5.41	-1
0	24734	5.51	-1
0	25291	5.61	-1
0	25848	5.71	-1
0	26405	5.81	-1
0	26962	5.91	-1
0	27527	6.01	-1
0	28084	6.11	-1
0	28641	6.21	-1
0	29198	6.31	-1
0	29755	6.41	-1
0	30312	6.51	-1
0	30869	6.61	-1
0	31426	6.71	-1
0	31983	6.81	-1
0	32540	6.91	-1
0	33105	7.01	-1
0	33662	7.11	-1
0	34219	7.21	-1
0	34776	7.31	-1
0	35333	7.41	-1
0	35890	7.51	-1
0	36447	7.61	-1
0	37004	7.71	-1
0	37561	7.81	-1
0	38118	7.91	-1
0	38683	8.01	-1
0	39240	8.11	-1
0	39797	8.21	-1
0	40354	8.31	-1
0	40911	8.41	-1
0	41468	8.51	-1
0	42025	8.61	-1
0	42582	8.71	-1
0	43139	8.81	-1
0	43696	8.91	-1
0	44261	9.01	-1
0	44818	9.11	-1
0	45375	9.21	-1
0	45932	9.31	-1
0	46489	9.41	-1
0	47046	9.51	-1
0	47603	9.61	-1
0	48160	9.71	-1
0	48717	9.81	-1
0	49274	9.91	-1
0	49839	10.01	-1
0	50396	10.11	-1
0	50953	10.21	-1
0	51510	10.31	-1
0	52067	10.41	-1
0	52624	10.51	-1
0	53181	10.61	-1
0	53738	10.71	-1
0	54295	10.81	-1
0	54852	10.91	-1
0	55417	11.01	-1
0	55974	11.11	-1
0	56531	11.21	-1
0	57088	11.31	-1
0	57645	11.41	-1
0	58202	11.51	-1
0	58759	11.61	-1
0	59316	11.71	-1
0	59873	11.81	-1
0	60430	11.91	-1
0	60995	12.01	-1
0	61552	12.11	-1
0	62109	12.21	-1
0	62666	12.31	-1
0	63223	12.41	-1
0	63780	12.51	-1
0	64337	12.61	-1
0	64894	12.71	-1
0	65451	12.81	-1
0	66008	12.91	-1
0	66573	13.01	-1
0	67130	13.11	-1
0	67687	13.21	-1
0	68244	13.31	-1
0	68801	13.41	-1
0	69358	13.51	-1
0	69915	13.61	-1
0	70472	13.71	-1
0	71029	13.81	-1
0	71586	13.91	-1
0	72151	14.01	-1
0	72708	14.11	-1
0	73265	14.21	-1
0	73822	14.31	-1
0	74379	14.41	-1
0	74936	14.51	-1
0	75493	14.61	-1
0	76050	14.71	-1
0	76607	14.81	-1
0	77164	14.91	-1
0	77729	15.01	-1
0	78286	15.11	-1
0	78843	15.21	-1
0	79400	15.31	-1
0	79957	15.41	-1
0	80514	15.51	-1
0	81071	15.61	-1
0	81628	15.71	-1
0	82185	15.81	-1
0	82742	15.91	-1
0	83307	16.01	-1
0	83864	16.11	-1
0	84421	16.21	-1
0	84978	16.31	-1
0	85535	16.41	-1
0	86092	16.51	-1
0	86649	16.61	-1
0	87206	16.71	-1
0	87763	16.81	-1
0	88320	16.91	-1
0	88885	17.01	-1
0	89442	17.11	-1
0	89999	17.21	-1
0	90556	17.31	-1
0	91113	17.41	-1
0	91670	17.51	-1
0	92227	17.61	-1
0	92784	17.71	-1
0	93341	17.81	-1
0	93898	17.91	-1
0	94463	18.01	-1
0	95020	18.11	-1
0	95577	18.21	-1
0	96134	18.31	-1
0	96691	18.41	-1
0	97248	18.51	-1
0	97805	18.61	-1
0	98362	18.71	-1
0	98919	18.81	-1
0	99476	18.91	-1
0	100041	19.01	-1
0	100598	19.11	-1
0	101155	19.21	-1
0	101712	19.31	-1
0	102269	19.41	-1
0	102826	19.51	-1
0	103383	19.61	-1
0	103940	19.71	-1
0	104497	19.81	-1
0	105054	19.91	-1
0	105619	20.01	-1
0	106176	20.11	-1
0	106733	20.21	-1
0	107290	20.31	-1
0	107847	20.41	-1
0	108404	20.51	-1
0	108961	20.61	-1
0	109518	20.71	-1
0	110075	20.81	-1
0	110632	20.91	-1
0	111197	21.01	-1
0	111754	21.11	-1
0	112311	21.21	-1
0	112868	21.31	-1
0	113425	21.41	-1
0	113982	21.51	-1
0	114539	21.61	-1
0	115096	21.71	-1
0	115653	21.81	-1
0	116210	21.91	-1
0	116775	22.01	-1
0	117332	22.11	-1
0	117889	22.21	-1
0	118446	22.31	-1
0	119003	22.41	-1
0	119560	22.51	-1
0	120117	22.61	-1
0	120674	22.71	-1
0	121231	22.81	-1
0	121788	22.91	-1
0	122353	23.01	-1
0	122910	23.11	-1
0	123467	23.21	-1
0	124024	23.31	-1
0	124581	23.41	-1
0	125138	23.51	-1
0	125695	23.61	-1
0	126252	23.71	-1
0	126809	23.81	-1
0	127366	23.91	-1
0	127931	24.01	-1
0	128488	24.11	-1
0	129045	24.21	-1
0	129602	24.31	-1
0	130159	24.41	-1
0	130716	24.51	-1
0	131273	24.61	-1
0	131830	24.71	-1
0	132387	24.81	-1
0	132944	24.91	-1
0	133509	25.01	-1
0	134066	25.11	-1
0	134623	25.21	-1
0	135180	25.31	-1
0	135737	25.41	-1
0	136294	25.51	-1
0	136851	25.61	-1
0	137408	25.71	-1
0	137965	25.81	-1
0	138522	25.91	-1
0	139087	26.01	-1
0	139644	26.11	-1
0	140201	26.21	-1
0	140758	26.31	-1
0	141315	26.41	-1
0	141872	26.51	-1
0	142429	26.61	-1
0	142986	26.71	-1
0	143543	26.81	-1
0	144100	26.91	-1
0	144665	27.01	-1
0	145222	27.11	-1
0	145779	27.21	-1
0	146336	27.31	-1
0	146893	27.41	-1
0	147450	27.51	-1
0	148007	27.61	-1
0	148564	27.71	-1
0	149121	27.81	-1
0	149678	27.91	-1
0	150243	28.01	-1
0	150800	28.11	-1
0	151357	28.21	-1
0	151914	28.31	-1
0	152471	28.41	-1
0	153028	28.51	-1
0	153585	28.61	-1
0	154142	28.71	-1
0	154699	28.81	-1
0	155256	28.91	-1
0	155821	29.01	-1
0	156378	29.11	-1
0	156935	29.21	-1
0	157492	29.31	-1
0	158049	29.41	-1
0	158606	29.51	-1
0	159163	29.61	-1
0	159720	29.71	-1
0	160277	29.81	-1
0	160834	29.91	-1
0	161399	30.01	-1
0	161956	30.11	-1
0	162513	30.21	-1
0	163070	30.31	-1
0	163627	30.41	-1
0	164184	30.51	-1
0	164741	30.61	-1
0	165298	30.71	-1
0	165855	30.81	-1
0	166412	30.91	-1
0	166977	31.01	-1
0	167534	31.11	-1
0	168091	31.21	-1
0	168648	31.31	-1
0	169205	31.41	-1
0	169762	31.51	-1
0	170319	31.61	-1
0	170876	31.71	-1
0	171433	31.81	-1
0	171990	31.91	-1
0	172555	32.01	-1
0	173112	32.11	-1
0	173669	32.21	-1
0	174226	32.31	-1
0	174783	32.41	-1
0	175340	32.51	-1
0	175897	32.61	-1
0	176454	32.71	-1
0	177011	32.81	-1
0	177568	32.91	-1
0	178133	33.01	-1
0	178690	33.11	-1
0	179247	33.21	-1
0	179804	33.31	-1
0	180361	33.41	-1
0	180918	33.51	-1
0	181475	33.61	-1
0	182032	33.71	-1
0	182589	33.81	-1
0	183146	33.91	-1
0	183711	34.01	-1
0	184268	34.11	-1
0	184825	34.21	-1
0	185382	34.31	-1
0	185939	34.41	-1
0	186496	34.51	-1
0	187053	34.61	-1
0	187610	34.71	-1
0	188167	34.81	-1
0	188724	34.91	-1
0	189289	35.01	-1
0	189846	35.11	-1
0	190403	35.21	-1
0	190960	35.31	-1
0	191517	35.41	-1
0	192074	35.51	-1
0	192631	35.61	-1
0	193188	35.71	-1
0	193745	35.81	-1
0	194302	35.91	-1
0	194867	36.01	-1
0	195424	36.11	-1
0	195981	36.21	-1
0	196538	36.31	-1
0	197095	36.41	-1
0	197652	36.51	-1
0	198209	36.61	-1
0	198766	36.71	-1
0	199323	36.81	-1
0	199880	36.91	-1
0	200445	37.01	-1
0	201002	37.11	-1
0	201559	37.21	-1
0	202116	37.31	-1
0	202673	37.41	-1
0	203230	37.51	-1
0	203787	37.61	-1
0	204344	37.71	-1
0	204901	37.81	-1
0	205458	37.91	-1
0	206023	38.01	-1
0	206580	38.11	-1
0	207137	38.21	-1
0	207694	38.31	-1
0	208251	38.41	-1
2	232	1.11	0
2	788	1.21	0
2	1344	1.31	0
2	1900	1.41	0
2	2456	1.51	0
2	3012	1.61	0
2	3568	1.71	0
2	4124	1.81	0
2	4680	1.91	0
2	5244	2.01	0
2	5800	2.11	0
2	6356	2.21	0
2	6912	2.31	0
2	7468	2.41	0
2	8024	2.51	0
2	8580	2.61	0
2	9136	2.71	0
2	9692	2.81	0
2	10248	2.91	0
2	10812	3.01	0
2	11368	3.11	0
2	11924	3.21	0
2	12480	3.31	0
2	13036	3.41	0
2	13592	3.51	0
2	14148	3.61	0
2	14704	3.71	0
2	15260	3.81	0
2	15816	3.91	0
2	16380	4.01	0
2	16936	4.11	0
2	17492	4.21	0
2	18048	4.31	0
2	18604	4.41	0
2	19160	4.51	0
2	19716	4.61	0
2	20272	4.71	0
2	20828	4.81	0
2	21384	4.91	0
2	21949	5.01	0
2	22506	5.11	0
2	23063	5.21	0
2	23620	5.31	0
2	24177	5.41	0
2	24734	5.51	0
2	25291	5.61	0
2	25848	5.71	0
2	26405	5.81	0
2	26962	5.91	0
2	27527	6.01	0
2	28084	6.11	0
2	28641	6.21	0
2	29198	6.31	0
2	29755	6.41	0
2	30312	6.51	0
2	30869	6.61	0
2	31426	6.71	0
2	31983	6.81	0
2	32540	6.91	0
2	33105	7.01	0
2	33662	7.11	0
2	34219	7.21	0
2	34776	7.31	0
2	35333	7.41	0
2	35890	7.51	0
2	36447	7.61	0
2	37004	7.71	0
2	37561	7.81	0
2	38118	7.91	0
2	38683	8.01	0
2	39240	8.11	0
2	39797	8.21	0
2	40354	8.31	0
2	40911	8.41	0
2	41468	8.51	0
2	42025	8.61	0
2	42582	8.71	0
2	43139	8.81	0
2	43696	8.91	0
2	44261	9.01	0
2	44818	9.11	0
2	45375	9.21	0
2	45932	9.31	0
2	46489	9.41	0
2	47046	9.51	0
2	47603	9.61	0
2	48160	9.71	0
2	48717	9.81	0
2	49274	9.91	0
2	49839	10.01	0
2	50396	10.11	0
2	50953	10.21	0
2	51510	10.31	0
2	52067	10.41	0
2	52624	10.51	0
2	53181	10.61	0
2	53738	10.71	0
2	54295	10.81	0
2	54852	10.91	0
2	55417	11.01	0
2	55974	11.11	0
2	56531	11.21	0
2	57088	11.31	0
2	57645	11.41	0
2	58202	11.51	0
2	58759	11.61	0
2	59316	11.71	0
2	59873	11.81	0
2	60430	11.91	0
2	60995	12.01	0
2	61552	12.11	0
2	62109	12.21	0
2	62666	12.31	0
2	63223	12.41	0
2	63780	12.51	0
2	64337	12.61	0
2	64894	12.71	0
2	65451	12.81	0
2	66008	12.91	0
2	66573	13.01	0
2	67130	13.11	0
2	67687	13.21	0
2	68244	13.31	0
2	68801	13.41	0
2	69358	13.51	0
2	69915	13.61	0
2	70472	13.71	0
2	71029	13.81	0
2	71586	13.91	0
2	72151	14.01	0
2	72708	14.11	0
2	73265	14.21	0
2	73822	14.31	0
2	74379	14.41	0
2	74936	14.51	0
2	75493	14.61	0
2	76050	14.71	0
2	76607	14.81	0
2	77164	14.91	0
2	77729	15.01	0
2	78286	15.11	0
2	78843	15.21	0
2	79400	15.31	0
2	79957	15.41	0
2	80514	15.51	0
2	81071	15.61	0
2	81628	15.71	0
2	82185	15.81	0
2	82742	15.91	0
2	83307	16.01	0
2	83864	16.11	0
2	84421	16.21	0
2	84978	16.31	0
2	85535	16.41	0
2	86092	16.51	0
2	86649	16.61	0
2	87206	16.71	0
2	87763	16.81	0
2	88320	16.91	0
2	88885	17.01	0
2	89442	17.11	0
2	89999	17.21	0
2	90556	17.31	0
2	91113	17.41	0
2	91670	17.51	0
2	92227	17.61	0
2	92784	17.71	0
2	93341	17.81	0
2	93898	17.91	0
2	94463	18.01	0
2	95020	18.11	0
2	95577	18.21	0
2	96134	18.31	0
2	96691	18.41	0
2	97248	18.51	0
2	97805	18.61	0
2	98362	18.71	0
2	98919	18.81	0
2	99476	18.91	0
2	100041	19.01	0
2	100598	19.11	0
2	101155	19.21	0
2	101712	19.31	0
2	102269	19.41	0
2	102826	19.51	0
2	103383	19.61	0
2	103940	19.71	0
2	104497	19.81	0
2	105054	19.91	0
2	105619	20.01	0
2	106176	20.11	0
2	106733	20.21	0
2	107290	20.31	0
2	107847	20.41	0
2	108404	20.51	0
2	108961	20.61	0
2	109518	20.71	0
2	110075	20.81	0
2	110632	20.91	0
2	111197	21.01	0
2	111754	21.11	0
2	112311	21.21	0
2	112868	21.31	0
2	113425	21.41	0
2	113982	21.51	0
2	114539	21.61	0
2	115096	21.71	0
2	115653	21.81	0
2	116210	21.91	0
2	116775	22.01	0
2	117332	22.11	0
2	117889	22.21	0
2	118446	22.31	0
2	119003	22.41	0
2	119560	22.51	0
2	120117	22.61	0
2	120674	22.71	0
2	121231	22.81	0
2	121788	22.91	0
2	122353	23.01	0
2	122910	23.11	0
2	123467	23.21	0
2	124024	23.31	0
2	124581	23.41	0
2	125138	23.51	0
2	125695	23.61	0
2	126252	23.71	0
2	126809	23.81	0
2	127366	23.91	0
2	127931	24.01	0
2	128488	24.11	0
2	129045	24.21	0
2	129602	24.31	0
2	130159	24.41	0
2	130716	24.51	0
2	131273	24.61	0
2	131830	24.71	0
2	132387	24.81	0
2	132944	24.91	0
2	133509	25.01	0
2	134066	25.11	0
2	134623	25.21	0
2	135180	25.31	0
2	135737	25.41	0
2	136294	25.51	0
2	136851	25.61	0
2	137408	25.71	0
2	137965	25.81	0
2	138522	25.91	0
2	139087	26.01	0
2	139644	26.11	0
2	140201	26.21	0
2	140758	26.31	0
2	141315	26.41	0
2	141872	26.51	0
2	142429	26.61	0
2	142986	26.71	0
2	143543	26.81	0
2	144100	26.91	0
2	144665	27.01	0
2	145222	27.11	0
2	145779	27.21	0
2	146336	27.31	0
2	146893	27.41	0
2	147450	27.51	0
2	148007	27.61	0
2	148564	27.71	0
2	149121	27.81	0
2	149678	27.91	0
2	150243	28.01	0
2	150800	28.11	0
2	151357	28.21	0
2	151914	28.31	0
2	152471	28.41	0
2	153028	28.51	0
2	153585	28.61	0
2	154142	28.71	0
2	154699	28.81	0
2	155256	28.91	0
2	155821	29.01	0
2	156378	29.11	0
2	156935	29.21	0
2	157492	29.31	0
2	158049	29.41	0
2	158606	29.51	0
2	159163	29.61	0
2	159720	29.71	0
2	160277	29.81	0
2	160834	29.91	0
2	161399	30.01	0
2	161956	30.11	0
2	162513	30.21	0
2	163070	30.31	0
2	163627	30.41	0
2	164184	30.51	0
2	164741	30.61	0
2	165298	30.71	0
2	165855	30.81	0
2	166412	30.91	0
2	166977	31.01	0
2	167534	31.11	0
2	168091	31.21	0
2	168648	31.31	0
2	169205	31.41	0
2	169762	31.51	0
2	170319	31.61	0
2	170876	31.71	0
2	171433	31.81	0
2	171990	31.91	0
2	172555	32.01	0
2	173112	32.11	0
2	173669	32.21	0
2	174226	32.31	0
2	174783	32.41	0
2	175340	32.51	0
2	175897	32.61	0
2	176454	32.71	0
2	177011	32.81	0
2	177568	32.91	0
2	178133	33.01	0
2	178690	33.11	0
2	179247	33.21	0
2	179804	33.31	0
2	180361	33.41	0
2	180918	33.51	0
2	181475	33.61	0
2	182032	33.71	0
2	182589	33.81	0
2	183146	33.91	0
2	183711	34.01	0
2	184268	34.11	0
2	184825	34.21	0
2	185382	34.31	0
2	185939	34.41	0
2	186496	34.51	0
2	187053	34.61	0
2	187610	34.71	0
2	188167	34.81	0
2	188724	34.91	0
2	189289	35.01	0
2	189846	35.11	0
2	190403	35.21	0
[...]
101	144731	27.069554490766	0.100000082168
101	145288	27.169554573141	0.100000082375
101	145845	27.269554655714	0.100000082573
101	146402	27.369554738468	0.100000082754
101	146959	27.469554821381	0.100000082913
101	147516	27.569554904426	0.100000083045
101	148073	27.669554987566	0.10000008314
101	148630	27.769555070766	0.1000000832
101	149187	27.869555153987	0.100000083221
101	149744	27.969555237201	0.100000083214
101	150309	28.069555320372	0.100000083171
101	150866	28.169555403484	0.100000083112
101	151423	28.269555486512	0.100000083028
101	151980	28.36955556944	0.100000082928
101	152537	28.469555652251	0.100000082811
101	153094	28.569555734938	0.100000082687
101	153651	28.669555817484	0.100000082546
101	154208	28.769555899883	0.100000082399
101	154765	28.869555982125	0.100000082242
101	155322	28.969556064201	0.100000082076
101	155887	29.069556146106	0.100000081905
101	156444	29.16955622783	0.100000081724
101	157001	29.269556309369	0.100000081539
101	157558	29.369556390717	0.100000081348
101	158115	29.469556471865	0.100000081148
101	158672	29.569556552811	0.100000080946
101	159229	29.669556633558	0.100000080747
101	159786	29.769556714111	0.100000080553
101	160343	29.869556794489	0.100000080378
101	160900	29.969556874715	0.100000080226
101	161465	30.069556954817	0.100000080102
101	162022	30.169557034834	0.100000080017
101	162579	30.269557114807	0.100000079973
101	163136	30.369557194789	0.100000079982
101	163693	30.469557274833	0.100000080044
101	164250	30.569557354995	0.100000080162
101	164807	30.669557435336	0.100000080341
101	165364	30.769557515909	0.100000080573
101	165921	30.869557596768	0.100000080859
101	166478	30.969557677967	0.100000081199
101	167043	31.069557759551	0.100000081584
101	167600	31.169557841569	0.100000082018
101	168157	31.269557924058	0.100000082489
101	168714	31.369558007054	0.100000082996
101	169271	31.469558090589	0.100000083535
101	169828	31.56955817469	0.100000084101
101	170385	31.669558259377	0.100000084687
101	170942	31.769558344672	0.100000085295
101	171499	31.869558430592	0.10000008592
101	172056	31.969558517152	0.10000008656
101	172621	32.069558604361	0.100000087209
101	173178	32.169558692225	0.100000087864
101	173735	32.26955878073	0.100000088505
101	174292	32.369558869848	0.100000089118
101	174849	32.469558959522	0.100000089674
101	175406	32.569559049681	0.100000090159
101	175963	32.669559140225	0.100000090544
101	176520	32.769559231031	0.100000090806
101	177077	32.869559321959	0.100000090928
101	177634	32.969559412849	0.10000009089
101	178199	33.069559503532	0.100000090683
101	178756	33.169559593824	0.100000090292
101	179313	33.269559683533	0.100000089709
101	179870	33.369559772459	0.100000088926
101	180427	33.469559860396	0.100000087937
101	180984	33.569559947131	0.100000086735
101	181541	33.669560032446	0.100000085315
101	182098	33.769560116126	0.10000008368
101	182655	33.869560197946	0.10000008182
101	183212	33.969560277681	0.100000079735
101	183777	34.069560355107	0.100000077426
101	184334	34.169560429996	0.100000074889
101	184891	34.269560502122	0.100000072126
101	185448	34.369560571257	0.100000069135
101	186005	34.469560637175	0.100000065918
101	186562	34.569560699651	0.100000062476
101	187119	34.669560758465	0.100000058814
101	187676	34.769560813407	0.100000054942
101	188233	34.869560864283	0.100000050876
101	188790	34.969560910909	0.100000046626
101	189355	35.069560953124	0.100000042215
101	189912	35.16956099078	0.100000037656
101	190469	35.269561023749	0.100000032969
101	191026	35.369561051922	0.100000028173
101	191583	35.46956107521	0.100000023288
101	192140	35.569561093541	0.100000018331
101	192697	35.669561106853	0.100000013312
101	193254	35.769561115098	0.100000008245
101	193811	35.869561118232	0.100000003134
101	194368	35.969561116223	0.099999997991
101	194933	36.069561109039	0.099999992816
101	195490	36.169561096654	0.099999987615
101	196047	36.269561079045	0.099999982391
101	196604	36.369561056193	0.099999977148
101	197161	36.469561028078	0.099999971885
101	197718	36.569560994684	0.099999966606
101	198275	36.669560955991	0.099999961307
101	198832	36.769560911982	0.099999955991
101	199389	36.869560862641	0.099999950659
101	199946	36.969560807949	0.099999945308
101	200511	37.069560747886	0.099999939937
101	201068	37.169560682425	0.099999934539
101	201625	37.26956061152	0.099999929095
101	202182	37.369560535105	0.099999923585
101	202739	37.469560453088	0.099999917983
101	203296	37.569560365351	0.099999912263
101	203853	37.669560271751	0.0999999064
101	204410	37.769560172118	0.099999900367
101	204967	37.869560066263	0.099999894145
101	205524	37.969559953982	0.099999887719
101	206089	38.069559835056	0.099999881074
101	206646	38.169559709256	0.0999998742
101	207203	38.269559576347	0.099999867091
101	207760	38.369559436083	0.099999859736
102	1312	1.306018002769	0.09993508144
102	1868	1.406096084209	0.10007808144
102	2424	1.506083165649	0.09998708144
102	2980	1.606057247089	0.09997408144
102	3536	1.706070328529	0.10001308144
102	4092	1.806083409969	0.10001308144
102	4648	1.906070491409	0.09998708144
102	5212	2.006018572849	0.09994808144
102	5768	2.106083654289	0.10006508144
102	6324	2.206018735729	0.09993508144
102	6880	2.306096817169	0.10007808144
102	7436	2.406070898609	0.09997408144
102	7992	2.506031980049	0.09996108144
102	8548	2.606084061489	0.10005208144
102	9104	2.706006142929	0.09992208144
102	9660	2.806032224369	0.10002608144
102	10216	2.906097305809	0.10006508144
102	10780	3.006071387249	0.09997408144
102	11336	3.106006468689	0.09993508144
102	11892	3.206058550129	0.10005208144
102	12448	3.306045631569	0.09998708144
102	13004	3.406006713009	0.09996108144
102	13560	3.506097794449	0.10009108144
102	14116	3.606045875889	0.09994808144
102	14672	3.706084957329	0.10003908144
102	15228	3.806059038769	0.09997408144
102	15784	3.906033120209	0.09997408144
102	16348	4.006020201649	0.09998708144
102	16904	4.106033283089	0.10001308144
102	17460	4.206007364529	0.09997408144
102	18016	4.306098445969	0.10009108144
102	18572	4.406007527409	0.09990908144
102	19128	4.506072608849	0.10006508144
102	19684	4.606059690289	0.09998708144
102	20240	4.706072771729	0.10001308144
102	20796	4.806059853169	0.09998708144
102	21352	4.906098934609	0.10003908144
102	21917	5.006021016049	0.09992208144
102	22474	5.106086097489	0.10006508144
102	23031	5.206073178929	0.09998708144
102	23582	5.306060260373	0.099987081444
102	24139	5.406008341831	0.099948081458
102	24696	5.506073423317	0.100065081486
102	25253	5.606060504851	0.099987081534
102	25810	5.70600858646	0.099948081609
102	26367	5.80604766817	0.10003908171
102	26924	5.906034750003	0.099987081833
102	27489	6.006021831976	0.099987081973
102	28046	6.106008914106	0.09998708213
102	28603	6.206060996407	0.100052082301
102	29160	6.306074078889	0.100013082482
102	29717	6.406100161563	0.100026082674
102	30274	6.506035244436	0.099935082873
102	30831	6.606087327517	0.100052083081
102	31388	6.70606141081	0.099974083293
102	31945	6.806061494318	0.100000083508
102	32502	6.90607457804	0.100013083722
102	33067	7.006074661965	0.100000083925
102	33624	7.10603574608	0.099961084115
102	34181	7.20602283036	0.09998708428
102	34738	7.306009914784	0.099987084424
102	35295	7.406022999321	0.100013084537
102	35852	7.506036083931	0.10001308461
102	36409	7.606036168583	0.100000084652
102	36966	7.706101253243	0.10006508466
102	37523	7.806088337877	0.099987084634
102	38080	7.906088422461	0.100000084584
102	38645	8.00606250697	0.099974084509
102	39202	8.106010591389	0.099948084419
102	39759	8.206023675701	0.100013084312
102	40316	8.30604975989	0.100026084189
102	40873	8.406049843946	0.100000084056
102	41430	8.506023927856	0.09997408391
102	41987	8.606076011609	0.100052083753
102	42544	8.706076095201	0.100000083592
102	43101	8.806076178621	0.10000008342
102	43658	8.906089261857	0.100013083236
102	44223	9.006037344906	0.099948083049
102	44780	9.106063427761	0.100026082855
102	45343	9.206063510416	0.100000082655
102	45900	9.306011592862	0.099948082446
102	46457	9.406050675095	0.100039082233
102	47014	9.506024757108	0.099974082013
102	47571	9.606089838894	0.100065081786
102	48128	9.706050920453	0.099961081559
102	48685	9.806038001791	0.099987081338
102	49242	9.90602508292	0.099987081129
102	49807	10.006012163863	0.099987080943
102	50364	10.106077244652	0.100065080789
102	50921	10.206038325319	0.099961080667
102	51478	10.306077405903	0.100039080584
102	52035	10.406038486447	0.099961080544
102	52592	10.506103566983	0.100065080536
102	53149	10.606025647545	0.099922080562
102	53706	10.706103728157	0.100078080612
102	54263	10.806012808841	0.099909080684
102	54820	10.906090889616	0.100078080775
102	55385	11.0060779705	0.099987080884
102	55942	11.106078051506	0.100000081006
102	56499	11.206026132647	0.099948081141
102	57056	11.306039213934	0.100013081287
102	57613	11.406078295374	0.10003908144
102	58170	11.50602637698	0.099948081606
102	58727	11.606026458756	0.100000081776
102	59284	11.70607854071	0.100052081954
102	59841	11.806013622849	0.099935082139
102	60398	11.906052705177	0.100039082328
102	60957	12.006091787698	0.100039082521
102	61514	12.106078870417	0.099987082719
102	62071	12.206104953327	0.10002608291
102	62628	12.306092036413	0.099987083086
102	63185	12.406040119654	0.099948083241
102	63742	12.506027203026	0.099987083372
102	64299	12.606066286493	0.100039083467
102	64856	12.70605337002	0.099987083527
102	65413	12.806105453567	0.100052083547
102	65970	12.906040537102	0.099935083535
102	66535	13.006066620592	0.10002608349
102	67092	13.106066704012	0.10000008342
102	67649	13.206040787343	0.099974083331
102	68206	13.306092870565	0.100052083222
102	68763	13.406027953662	0.099935083097
102	69320	13.506015036622	0.09998708296
102	69883	13.606028119434	0.100013082812
102	70440	13.706067202085	0.100039082651
102	70997	13.806028284566	0.099961082481
102	71554	13.906067366871	0.100039082305
102	72119	14.006041448991	0.09997408212
102	72676	14.106080530917	0.100039081926
102	73233	14.206093612645	0.100013081728
102	73790	14.306041694167	0.099948081522
102	74347	14.406028775477	0.09998708131
102	74904	14.506041856569	0.100013081092
102	75461	14.60604193744	0.100000080871
102	76018	14.706068018095	0.100026080655
102	76575	14.806016098543	0.099948080448
102	77132	14.906094178806	0.100078080263
102	77697	15.006068258907	0.099974080101
102	78254	15.10604233888	0.099974079973
102	78811	15.206029418762	0.099987079882
102	79368	15.30610749859	0.100078079828
102	79925	15.406094578406	0.099987079816
102	80482	15.506094658242	0.100000079836
102	81039	15.606068738123	0.099974079881
102	81596	15.706029818074	0.099961079951
102	82153	15.806016898116	0.099987080042
102	82710	15.906029978264	0.100013080148
102	83275	16.006043058535	0.100013080271
102	83832	16.106017138941	0.099974080406
102	84389	16.206017219493	0.100000080552
102	84946	16.306056300201	0.100039080708
102	85503	16.406017381073	0.099961080872
102	86060	16.506017462118	0.100000081045
102	86617	16.606030543339	0.100013081221
102	87174	16.706017624746	0.099987081407
102	87731	16.806069706342	0.100052081596
102	88288	16.906004788137	0.099935081795
102	88853	17.006017870133	0.100013081996
102	89410	17.106030952334	0.100013082201
102	89961	17.206096034734	0.1000650824
102	90518	17.30609611732	0.100000082586
102	91075	17.406070200075	0.099974082755
102	91632	17.50604428297	0.099974082895
102	92189	17.606044365975	0.100000083005
102	92746	17.706005449054	0.099961083079
102	93303	17.806031532167	0.100026083113
102	93860	17.90605761528	0.100026083113
102	94425	18.006031698358	0.099974083078
102	94982	18.106018781378	0.09998708302
102	95539	18.206096864317	0.100078082939
102	96096	18.306031947155	0.099935082838
102	96659	18.406019029877	0.099987082722
102	97216	18.506045112469	0.100026082592
102	97773	18.606045194922	0.100000082453
102	98330	18.706019277223	0.099974082301
102	98887	18.806084359362	0.100065082139
102	99444	18.906019441331	0.099935081969
102	100009	19.006058523125	0.100039081794
102	100566	19.106084604732	0.100026081607
102	101123	19.206071686147	0.099987081415
102	101680	19.306058767363	0.099987081216
102	102237	19.406084848376	0.100026081013
102	102794	19.50600692918	0.099922080804
102	103351	19.606007009771	0.100000080591
102	103908	19.706007090154	0.100000080383
102	104465	19.806085170338	0.100078080184
102	105022	19.906020250344	0.099935080006
102	105587	20.006046330202	0.100026079858
102	106144	20.106033409942	0.09998707974
102	106701	20.2060594896	0.100026079658
102	107258	20.306072569218	0.100013079618
102	107815	20.406059648833	0.099987079615
102	108372	20.506072728475	0.100013079642
102	108929	20.606098808175	0.1000260797
102	109486	20.706059887953	0.099961079778
102	110043	20.806072967832	0.100013079879
102	110600	20.906060047827	0.099987079995
102	111165	21.006021127949	0.099961080122
102	111722	21.106086208215	0.100065080266
102	112279	21.206099288633	0.100013080418
102	112836	21.306099369213	0.10000008058
102	113393	21.406034449961	0.099935080748
102	113950	21.506073530889	0.100039080928
102	114507	21.606021612002	0.099948081113
102	115064	21.706060693303	0.100039081301
102	115621	21.806086774803	0.1000260815
102	116178	21.906034856504	0.099948081701
102	116743	22.006008938412	0.099974081908
102	117300	22.106087020527	0.100078082115
102	117851	22.206087102849	0.100000082322
102	118408	22.306061185364	0.099974082515
102	118965	22.406100268052	0.100039082688
102	119522	22.506009350888	0.099909082836
102	120079	22.606061433841	0.100052082953
102	120636	22.706087516873	0.100026083032
102	121193	22.806100599945	0.100013083072
102	121750	22.906022683023	0.099922083078
102	122315	23.006048766071	0.100026083048
102	122872	23.106022849067	0.099974082996
102	123429	23.206074931987	0.10005208292
102	123986	23.306088014814	0.100013082827
102	124543	23.406075097531	0.099987082717
102	125106	23.506075180122	0.100000082591
102	125663	23.606062262578	0.099987082456
102	126220	23.706036344888	0.09997408231
102	126777	23.806036427043	0.100000082155
102	127334	23.906088509032	0.100052081989
102	127899	24.006049590851	0.099961081819
102	128456	24.10604967249	0.100000081639
102	129013	24.206062753941	0.100013081451
102	129570	24.306036835201	0.09997408126
102	130127	24.406088916261	0.10005208106
102	130684	24.506088997116	0.100000080855
102	131241	24.606089077765	0.100000080649
102	131798	24.70605015821	0.099961080445
102	132355	24.806063238462	0.100013080252
102	132912	24.906089318543	0.100026080081
102	133477	25.006076398479	0.099987079936
102	134034	25.106011478304	0.099935079825
102	134591	25.206037558055	0.100026079751
102	135148	25.306076637768	0.100039079713
102	135705	25.406063717485	0.099987079717
102	136262	25.506011797234	0.099948079749
102	136819	25.606089877043	0.100078079809
102	137376	25.706050956938	0.099961079895
102	137933	25.806038036935	0.099987079997
102	138490	25.90610311705	0.100065080115
102	139055	26.006090197298	0.099987080248
102	139612	26.106077277692	0.099987080394
102	140169	26.20601235824	0.099935080548
102	140726	26.306025438953	0.100013080713
102	141283	26.406077519837	0.100052080884
102	141840	26.506090600904	0.100013081067
102	142397	26.606025682155	0.099935081251
102	142954	26.706103763599	0.100078081444
102	143511	26.806025845242	0.099922081643
102	144068	26.906077927087	0.100052081845
102	144633	27.006026009141	0.099948082054
102	145184	27.106104091406	0.100078082265
102	145741	27.206026173878	0.099922082472
102	146298	27.306065256545	0.100039082667
102	146855	27.406026339385	0.09996108284
102	147412	27.506078422377	0.100052082992
102	147969	27.606065505485	0.099987083108
102	148526	27.706104588675	0.10003908319
102	149083	27.806013671905	0.09990908323
102	149640	27.906065755144	0.100052083239
102	150205	28.006104838356	0.100039083212
102	150762	28.106104921518	0.100000083162
102	151319	28.206014004606	0.099909083088
102	151876	28.306079087603	0.100065082997
102	152433	28.40607917049	0.100000082887
102	152990	28.506105253256	0.100026082766
102	153553	28.606079335889	0.099974082633
102	154110	28.706014418377	0.099935082488
102	154667	28.806040500712	0.100026082335
102	155224	28.906092582884	0.100052082172
102	155789	29.006066664888	0.099974082004
102	156346	29.106066746713	0.100000081825
102	156903	29.206053828355	0.099987081642
102	157460	29.306014909807	0.099961081452
102	158017	29.406066991061	0.100052081254
102	158574	29.506054072113	0.099987081052
102	159131	29.606028152961	0.099974080848
102	159688	29.706028233606	0.100000080645
102	160245	29.806015314062	0.099987080456
102	160802	29.906041394352	0.10002608029
102	161367	30.006106474498	0.100065080146
102	161924	30.106015554537	0.099909080039
102	162481	30.206080634511	0.100065079974
102	163038	30.306106714471	0.10002607996
102	163595	30.406067794475	0.099961080004
102	164152	30.506041874584	0.099974080109
102	164709	30.60602895486	0.099987080276
102	165266	30.706055035358	0.100026080498
102	165823	30.806016116134	0.099961080776
102	166380	30.906081197245	0.100065081111
102	166945	31.006068278735	0.09998708149
102	167502	31.106029360654	0.099961081919
102	168059	31.206081443041	0.100052082387
102	168616	31.306068525933	0.099987082892
102	169173	31.406029609362	0.099961083429
102	169730	31.506094693354	0.100065083992
102	170287	31.606029777933	0.099935084579
102	170844	31.706055863116	0.100026085183
102	171401	31.806068948922	0.100013085806
102	171958	31.906017035368	0.099948086446
102	172523	32.006043122463	0.100026087095
102	173080	32.106056210219	0.100013087756
102	173637	32.206082298627	0.100026088408
102	174194	32.306056387663	0.099974089036
102	174751	32.406056477276	0.100000089613
102	175308	32.506030567395	0.099974090119
102	175865	32.606069657924	0.100039090529
102	176422	32.706108748739	0.100039090815
102	176979	32.806004839701	0.099896090962
102	177536	32.906056930645	0.100052090944
102	178101	33.006018021398	0.099961090753
102	178658	33.106057111773	0.100039090375
102	179215	33.206018201579	0.099961089806
102	179772	33.306018290609	0.10000008903
102	180329	33.406057378658	0.100039088049
102	180886	33.506070465512	0.100013086854
102	181443	33.606031550952	0.09996108544
102	181994	33.70604463476	0.100013083808
102	182551	33.806057716713	0.100013081953
102	183108	33.906083796583	0.10002607987
102	183673	34.006044874147	0.099961077564
102	184230	34.106005949176	0.099961075029
102	184787	34.206058021442	0.100052072266
102	185344	34.30605809072	0.100000069278
102	185901	34.406019156782	0.099961066062
102	186458	34.506045219401	0.100026062619
102	187015	34.606097278351	0.10005205895
102	187572	34.706097333422	0.100000055071
102	188129	34.80607138441	0.099974050988
102	188686	34.90600643113	0.09993504672
102	189251	35.006032473418	0.100026042288
102	189808	35.106019511122	0.099987037704
102	190365	35.206084544115	0.100065032993
102	190922	35.30607157229	0.099987028175
102	191479	35.406032595559	0.099961023269
102	192036	35.506045613855	0.100013018296
102	192593	35.606032627121	0.099987013266
102	193150	35.706084635307	0.100052008186
102	193707	35.806084638374	0.100000003067
102	194264	35.906032636289	0.099947997915
102	194829	36.006032629025	0.099999992736
102	195386	36.106084616552	0.100051987527
102	195943	36.206084598853	0.099999982301
102	196500	36.306045575906	0.099960977053
102	197057	36.406032547693	0.099986971787
102	197614	36.506032514198	0.099999966505
102	198171	36.606084475403	0.100051961205
102	198728	36.70603243129	0.099947955887
102	199285	36.806019381843	0.099986950553
102	199842	36.906097327044	0.100077945201
102	200407	37.006071266874	0.09997393983
102	200964	37.106058201311	0.099986934437
102	201521	37.206045130315	0.099986929004
102	202078	37.306019053822	0.099973923507
102	202635	37.406070971745	0.100051917923
102	203192	37.506083883972	0.100012912227
102	203749	37.606018790357	0.099934906385
102	204306	37.706057690734	0.100038900377
102	204863	37.806044584912	0.099986894178
102	205420	37.906083472683	0.100038887771
102	205985	38.006031353826	0.099947881143
102	206542	38.106096228108	0.100064874282
102	207099	38.206070095291	0.099973867183
102	207656	38.306095955129	0.100025859838
102	208213	38.406017807374	0.099921852245
