file 893555 1512144159                                          
version 2
run SinusoidalAccInjectionAttack-242-20171201-17:02:23-74659
attr CACCSpacing 5
attr attackAcc 30
attr attackPos 7
attr attackSpeed 150
attr attackStart 30
attr attacker 4
attr beaconInterval 0.1
attr configname SinusoidalAccInjectionAttack
attr controller 1
attr datetime 20171201-17:02:23
attr experiment SinusoidalAccInjectionAttack
attr fakeAcc "(4 == 4)"
attr fakePos "(4 == 2)"
attr fakeSpeed "(4 == 3)"
attr inifile omnetpp_242.ini
attr iterationvars "$attacker=4, $attackSpeed=150, $attackPos=7, $attackAcc=30, $leaderSpeed=50, $controller=1, $CACCSpacing=5, $sController=\"CACC\", $attackStart=30, $0=5, $1=0, $nCars=8, $platoonSize=8, $nLanes=1, $beaconInterval=0.1, $priority=2, $packetSize=200, $ploegH=0.5, $leaderHeadway=1.2, $fakeSpeed=(4 == 3), $fakeAcc=(4 == 4), $fakePos=(4 == 2)"
attr iterationvarsf attacker=4,attackSpeed=150,attackPos=7,attackAcc=30,leaderSpeed=50,controller=1,CACCSpacing=5,sController=CACC,attackStart=30,5,0,nCars=8,platoonSize=8,nLanes=1,beaconInterval=0.1,priority=2,packetSize=200,ploegH=0.5,leaderHeadway=1.2,fakeSpeed=(4_==_3),fakeAcc=(4_==_4),fakePos=(4_==_2)-
attr leaderHeadway 1.2
attr leaderSpeed 50
attr measurement "$attacker=4, $attackSpeed=150, $attackPos=7, $attackAcc=30, $leaderSpeed=50, $controller=1, $CACCSpacing=5, $sController=\"CACC\", $attackStart=30, $0=5, $1=0, $nCars=8, $platoonSize=8, $nLanes=1, $beaconInterval=0.1, $priority=2, $packetSize=200, $ploegH=0.5, $leaderHeadway=1.2, $fakeSpeed=(4 == 3), $fakeAcc=(4 == 4), $fakePos=(4 == 2)"
attr nCars 8
attr nLanes 1
attr network scenario
attr packetSize 200
attr platoonSize 8
attr ploegH 0.5
attr priority 2
attr processid 74659
attr repetition 2
attr replication #2
attr resultdir results
attr runnumber 242
attr sController "\"CACC\""
attr seedset 2
param **.coreDebug false
param **.debug false
param **.headway 0.1s
param **.numberOfCars 8
param **.numberOfCarsPerPlatoon 8
param **.numberOfLanes 1
param **.numericController 1
param **.traffic.nCars 8
param **.traffic.nLanes 1
param **.traffic.platoonInsertDistance 5m
param **.traffic.platoonInsertHeadway 0s
param **.traffic.platoonInsertSpeed 50kmph
param **.traffic.platoonInsertTime "1 s"
param **.traffic.platoonLeaderHeadway 1.2s
param **.traffic.platoonSize 8
param **.traffic.platooningVType "\"vtypeauto\""
param **.traffic_type "\"PlatoonsTrafficManager\""
param *.**.nic.mac1609_4.bitrate 6Mbps
param *.**.nic.mac1609_4.txPower 100mW
param *.**.nic.mac1609_4.useServiceChannel false
param *.**.nic.phy80211p.analogueModels "xmldoc(\"config.xml\")"
param *.**.nic.phy80211p.decider "xmldoc(\"config.xml\")"
param *.**.nic.phy80211p.maxTXPower 100mW
param *.**.nic.phy80211p.sensitivity -94dBm
param *.**.nic.phy80211p.thermalNoise -95dBm
param *.**.nic.phy80211p.usePropagationDelay true
param *.**.nic.phy80211p.useThermalNoise true
param *.annotations.draw false
param *.connectionManager.alpha 2.0
param *.connectionManager.carrierFrequency "5.890e9 Hz"
param *.connectionManager.pMax 100mW
param *.connectionManager.sat -94dBm
param *.connectionManager.sendDirect true
param *.manager.autoShutdown true
param *.manager.commandLine "\"sumo --remote-port $port --seed $seed --configuration-file $configFile\""
param *.manager.configFile "\"./sumocfg/freeway.sumo.cfg\""
param *.manager.host "\"localhost\""
param *.manager.margin 25
param *.manager.moduleDisplayString "\"\""
param *.manager.moduleName "\"node\""
param *.manager.moduleType "\"Car\""
param *.manager.updateInterval 0.01s
param *.node[*].appl.attackStart 30s
param *.node[*].appl.attackerType 4
param *.node[*].appl.simulationDuration "60 s"
param *.node[*].appl_type "\"SimplePlatooningApp\""
param *.node[*].helper.nCars 8
param *.node[*].helper.nLanes 1
param *.node[*].helper.platoonSize 8
param *.node[*].helper_type "\"PositionHelper\""
param *.node[*].mobility.x 0
param *.node[*].mobility.y 0
param *.node[*].mobility.z 1.895
param *.node[*].prot.attackStart 30s
param *.node[*].prot.attackerType 4
param *.node[*].prot.attackingNode 3
param *.node[*].prot.beaconingInterval 0.1s
param *.node[*].prot.fakeAcc "(4 == 4)"
param *.node[*].prot.fakePos "(4 == 2)"
param *.node[*].prot.fakeSpeed "(4 == 3)"
param *.node[*].prot.maliciousAcc "30 mpss"
param *.node[*].prot.maliciousSpeed 150kmph
param *.node[*].prot.packetSize 200
param *.node[*].prot.priority 2
param *.node[*].prot.shiftX "7 m"
param *.node[*].prot.useControllerAcceleration true
param *.node[*].protocol_type "\"SimplePlatooningBeaconing\""
param *.node[*].scenario.accHeadway 0.1s
param *.node[*].scenario.caccC1 0.5
param *.node[*].scenario.caccOmegaN "0.2 Hz"
param *.node[*].scenario.caccSpacing 5m
param *.node[*].scenario.caccXi 1
param *.node[*].scenario.controller "\"CACC\""
param *.node[*].scenario.engineTau "0.5 s"
param *.node[*].scenario.leaderHeadway 1.2s
param *.node[*].scenario.leaderSpeed 50kmph
param *.node[*].scenario.ploegH 0.5s
param *.node[*].scenario.ploegKd 0.7
param *.node[*].scenario.ploegKp 0.2
param *.node[*].scenario.useRealisticEngine false
param *.node[*].scenario_type "\"SinusoidalScenario\""
param *.node[*].unicast.packetLossRate 0
param *.obstacles.debug false
param *.playgroundSizeX 65000m
param *.playgroundSizeY 25000m
param *.playgroundSizeZ 50m
param *.world.use2D false
param *.world.useTorus false

vector 0  scenario.node[0].appl  distance  ETV
vector 1  scenario.node[0].appl  relativeSpeed  ETV
vector 2  scenario.node[0].appl  nodeId  ETV
vector 6  scenario.node[0].appl  acceleration  ETV
vector 7  scenario.node[0].appl  controllerAcceleration  ETV
vector 3  scenario.node[0].appl  speed  ETV
vector 4  scenario.node[0].appl  posx  ETV
vector 5  scenario.node[0].appl  posy  ETV
vector 22  scenario.node[1].appl  distance  ETV
vector 23  scenario.node[1].appl  relativeSpeed  ETV
vector 24  scenario.node[1].appl  nodeId  ETV
vector 28  scenario.node[1].appl  acceleration  ETV
vector 29  scenario.node[1].appl  controllerAcceleration  ETV
vector 25  scenario.node[1].appl  speed  ETV
vector 26  scenario.node[1].appl  posx  ETV
vector 27  scenario.node[1].appl  posy  ETV
vector 44  scenario.node[2].appl  distance  ETV
vector 45  scenario.node[2].appl  relativeSpeed  ETV
vector 46  scenario.node[2].appl  nodeId  ETV
vector 50  scenario.node[2].appl  acceleration  ETV
vector 51  scenario.node[2].appl  controllerAcceleration  ETV
vector 47  scenario.node[2].appl  speed  ETV
vector 48  scenario.node[2].appl  posx  ETV
vector 49  scenario.node[2].appl  posy  ETV
vector 66  scenario.node[3].appl  distance  ETV
vector 67  scenario.node[3].appl  relativeSpeed  ETV
vector 68  scenario.node[3].appl  nodeId  ETV
vector 72  scenario.node[3].appl  acceleration  ETV
vector 73  scenario.node[3].appl  controllerAcceleration  ETV
vector 69  scenario.node[3].appl  speed  ETV
vector 70  scenario.node[3].appl  posx  ETV
vector 71  scenario.node[3].appl  posy  ETV
vector 88  scenario.node[4].appl  distance  ETV
vector 89  scenario.node[4].appl  relativeSpeed  ETV
vector 90  scenario.node[4].appl  nodeId  ETV
vector 94  scenario.node[4].appl  acceleration  ETV
vector 95  scenario.node[4].appl  controllerAcceleration  ETV
vector 91  scenario.node[4].appl  speed  ETV
vector 92  scenario.node[4].appl  posx  ETV
vector 93  scenario.node[4].appl  posy  ETV
vector 110  scenario.node[5].appl  distance  ETV
vector 111  scenario.node[5].appl  relativeSpeed  ETV
vector 112  scenario.node[5].appl  nodeId  ETV
vector 116  scenario.node[5].appl  acceleration  ETV
vector 117  scenario.node[5].appl  controllerAcceleration  ETV
vector 113  scenario.node[5].appl  speed  ETV
vector 114  scenario.node[5].appl  posx  ETV
vector 115  scenario.node[5].appl  posy  ETV
vector 132  scenario.node[6].appl  distance  ETV
vector 133  scenario.node[6].appl  relativeSpeed  ETV
vector 134  scenario.node[6].appl  nodeId  ETV
vector 138  scenario.node[6].appl  acceleration  ETV
vector 139  scenario.node[6].appl  controllerAcceleration  ETV
vector 135  scenario.node[6].appl  speed  ETV
vector 136  scenario.node[6].appl  posx  ETV
vector 137  scenario.node[6].appl  posy  ETV
vector 154  scenario.node[7].appl  distance  ETV
vector 155  scenario.node[7].appl  relativeSpeed  ETV
vector 156  scenario.node[7].appl  nodeId  ETV
vector 160  scenario.node[7].appl  acceleration  ETV
vector 161  scenario.node[7].appl  controllerAcceleration  ETV
vector 157  scenario.node[7].appl  speed  ETV
vector 158  scenario.node[7].appl  posx  ETV
vector 159  scenario.node[7].appl  posy  ETV
vector 168  scenario.node[7].prot  frontDelay  ETV
vector 166  scenario.node[7].prot  frontDelayId  ETV
vector 146  scenario.node[6].prot  frontDelay  ETV
vector 144  scenario.node[6].prot  frontDelayId  ETV
vector 35  scenario.node[1].prot  leaderDelay  ETV
vector 33  scenario.node[1].prot  leaderDelayId  ETV
vector 36  scenario.node[1].prot  frontDelay  ETV
vector 34  scenario.node[1].prot  frontDelayId  ETV
vector 57  scenario.node[2].prot  leaderDelay  ETV
vector 55  scenario.node[2].prot  leaderDelayId  ETV
vector 79  scenario.node[3].prot  leaderDelay  ETV
vector 77  scenario.node[3].prot  leaderDelayId  ETV
vector 101  scenario.node[4].prot  leaderDelay  ETV
vector 99  scenario.node[4].prot  leaderDelayId  ETV
vector 123  scenario.node[5].prot  leaderDelay  ETV
vector 121  scenario.node[5].prot  leaderDelayId  ETV
vector 145  scenario.node[6].prot  leaderDelay  ETV
vector 143  scenario.node[6].prot  leaderDelayId  ETV
vector 167  scenario.node[7].prot  leaderDelay  ETV
vector 165  scenario.node[7].prot  leaderDelayId  ETV
vector 102  scenario.node[4].prot  frontDelay  ETV
vector 100  scenario.node[4].prot  frontDelayId  ETV
vector 80  scenario.node[3].prot  frontDelay  ETV
vector 78  scenario.node[3].prot  frontDelayId  ETV
vector 124  scenario.node[5].prot  frontDelay  ETV
vector 122  scenario.node[5].prot  frontDelayId  ETV
vector 58  scenario.node[2].prot  frontDelay  ETV
vector 56  scenario.node[2].prot  frontDelayId  ETV
vector 8  scenario.node[0].prot  nodeId  ETV
vector 9  scenario.node[0].prot  busyTime  ETV
vector 10  scenario.node[0].prot  collisions  ETV
vector 30  scenario.node[1].prot  nodeId  ETV
vector 31  scenario.node[1].prot  busyTime  ETV
vector 32  scenario.node[1].prot  collisions  ETV
vector 52  scenario.node[2].prot  nodeId  ETV
vector 53  scenario.node[2].prot  busyTime  ETV
vector 54  scenario.node[2].prot  collisions  ETV
vector 74  scenario.node[3].prot  nodeId  ETV
vector 75  scenario.node[3].prot  busyTime  ETV
vector 76  scenario.node[3].prot  collisions  ETV
vector 96  scenario.node[4].prot  nodeId  ETV
vector 97  scenario.node[4].prot  busyTime  ETV
vector 98  scenario.node[4].prot  collisions  ETV
vector 118  scenario.node[5].prot  nodeId  ETV
vector 119  scenario.node[5].prot  busyTime  ETV
vector 120  scenario.node[5].prot  collisions  ETV
vector 140  scenario.node[6].prot  nodeId  ETV
vector 141  scenario.node[6].prot  busyTime  ETV
vector 142  scenario.node[6].prot  collisions  ETV
vector 162  scenario.node[7].prot  nodeId  ETV
vector 163  scenario.node[7].prot  busyTime  ETV
vector 164  scenario.node[7].prot  collisions  ETV
7	11071 7537 232 175340 1.11 32.51 315 -1.5 1.5 13.74602282122 493.80984018651
6	18608 9866 232 175340 1.11 32.51 315 -1.472274679513 1.4513407705126 12.847980579563 335.54193341154
5	28474 6327 232 175340 1.11 32.51 315 36.55 36.55 11513.25 420809.2875
4	34801 9437 232 175340 1.11 32.51 315 99.282191848622 539.1981427145 100941.45448583 37458813.276137
3	44238 9444 232 175340 1.11 32.51 315 12.59914837223 15.853603639796 4413.4962061814 62069.476181984
1	53682 5067 232 175340 1.11 32.51 315 0 0 0 0
0	58749 5382 232 175340 1.11 32.51 315 -1 -1 -315 315
2	64131 5067 232 175340 1.11 32.51 315 0 0 0 0
10	69198 438 5168 172478 2 32 31 0 0 0 0
9	69636 594 5168 172478 2 32 31 0.023297 0.02625 0.810797 0.021214625209
8	70230 407 5168 172478 2 32 31 0 0 0 0
29	70637 10121 233 175341 1.11 32.51 315 -1.5233934313509 1.5241491847198 14.750785258549 499.9504296558
28	80758 10163 233 175341 1.11 32.51 315 -1.4872877336979 1.4632119881083 12.707661807732 339.24334443952
27	90921 6642 233 175341 1.11 32.51 315 36.55 36.55 11513.25 420809.2875
26	97563 9765 233 175341 1.11 32.51 315 90.282188034058 530.10728998528 98103.880629715 35666349.187558
25	107328 9763 233 175341 1.11 32.51 315 12.591606561291 15.859016328899 4412.5814075948 62045.85073185
23	117091 10655 233 175341 1.11 32.51 315 -0.085370881351961 0.0854927136455 0.78631878079265 1.2157519402909
22	127746 9767 233 175341 1.11 32.51 315 4.9094714808437 5.1291570099126 1577.5555601456 7901.6911422498
24	137513 5382 233 175341 1.11 32.51 315 1 1 315 315
36	142895 12524 1034 175586 1.262216930646 32.562213334076 314 0.099998613183 0.10001166314 31.399995063888 3.1399990176348
35	155419 12524 1034 175586 1.262216930646 32.562213334076 314 0.099998613183 0.10001166314 31.399995063888 3.1399990176348
34	167943 8472 1034 175586 1.262216930646 32.562213334076 314 1 1 314 314
33	176415 8472 1034 175586 1.262216930646 32.562213334076 314 1 1 314 314
32	184887 438 5169 172479 2 32 31 0 0 0 0
31	185325 625 5169 172479 2 32 31 0.023296 0.02625 0.810796 0.021214578616
30	185950 438 5169 172479 2 32 31 1 1 31 31
51	186388 10105 234 175342 1.11 32.51 315 -1.4963007063708 1.4967154524215 14.897825542998 479.84729913327
50	196493 10155 234 175342 1.11 32.51 315 -1.4778825499601 1.4526090796357 12.563207675477 335.98066409125
49	206648 6642 234 175342 1.11 32.51 315 36.55 36.55 11513.25 420809.2875
48	213290 9759 234 175342 1.11 32.51 315 81.282188034058 521.08479123593 95267.656117438 33925551.658299
47	223049 9754 234 175342 1.11 32.51 315 12.597840099633 15.853308341145 4412.3509243124 62036.858698227
45	232803 10719 234 175342 1.11 32.51 315 -0.019406092240807 0.017598487203578 0.10340666434554 0.034597820737089
44	243522 9750 234 175342 1.11 32.51 315 4.9758459113438 5.0458892887129 1576.2199026113 7887.3007031643
46	253272 5382 234 175342 1.11 32.51 315 2 2 630 1260
58	258654 12489 1312 175302 1.302609200833 32.502606960675 313 0.099998614762 0.10001166295 31.3000094203 3.1300018890489
57	271143 12523 1040 175592 1.262216960667 32.562213364174 314 0.099998613188 0.10001166314 31.399995063965 3.1399990176502
56	283666 8453 1312 175302 1.302609200833 32.502606960675 313 2 2 626 1252
55	292119 8476 1040 175592 1.262216960667 32.562213364174 314 2 2 628 1256
54	300595 438 5170 172480 2 32 31 0 0 0 0
53	301033 625 5170 172480 2 32 31 0.023297 0.02625 0.810797 0.021214625209
52	301658 438 5170 172480 2 32 31 2 2 62 124
73	302096 10126 235 175343 1.11 32.51 315 -1.5144504184155 1.5154441727111 14.858747727422 490.32481668447
72	312222 10180 235 175343 1.11 32.51 315 -1.4663369027497 1.4406243145913 12.388988887617 330.04670481811
71	322402 6642 235 175343 1.11 32.51 315 36.55 36.55 11513.25 420809.2875
70	329044 9760 235 175343 1.11 32.51 315 72.282188034058 512.07165757404 92431.43090201 32235872.805618
69	338804 9763 235 175343 1.11 32.51 315 12.609451331645 15.840833680872 4412.2132929831 62029.118222184
67	348567 10800 235 175343 1.11 32.51 315 -0.015760221391654 0.014948752827303 0.011999252609474 0.019182642262757
66	359367 9747 235 175343 1.11 32.51 315 4.9816113850634 5.0406527671715 1576.2224628012 7887.2938309902
68	369114 5382 235 175343 1.11 32.51 315 3 3 945 2835
80	374496 12526 1176 175722 1.287873050729 32.587882454379 314 0.099998613207 0.10001166287 31.400008064108 3.1400016178124
79	387022 12539 1046 175598 1.262216990687 32.562213394242 314 0.099998613195 0.100011663143 31.399995064013 3.1399990176598
78	399561 8476 1176 175722 1.287873050729 32.587882454379 314 3 3 942 2826
77	408037 8477 1046 175598 1.262216990687 32.562213394242 314 3 3 942 2826
76	416514 438 5171 172481 2 32 31 0 0 0 0
75	416952 625 5171 172481 2 32 31 0.023297 0.02625 0.810797 0.021214625209
74	417577 438 5171 172481 2 32 31 3 3 93 279
117	418015 10445 237 175345 1.11 32.51 315 -1.5085423827064 8.6190946933365 181.65643838958 1999.5986654781
116	428460 10324 237 175345 1.11 32.51 315 -1.4566506715994 2.5 46.324084679034 442.72861620389
115	438784 6957 237 175345 1.11 32.51 315 36.55 36.55 11513.25 420809.2875
114	445741 10063 237 175345 1.11 32.51 315 54.282189941406 498.32836220884 86796.906142252 29046199.945441
113	455804 10076 237 175345 1.11 32.51 315 12.615646211585 18.411102936676 4455.9537611495 63361.738991432
111	465880 10915 237 175345 1.11 32.51 315 -0.03035779400053 0.15917398897178 4.0434281494107 0.71526498989438
110	476795 10081 237 175345 1.11 32.51 315 4.9827406468071 5.442405637231 1581.7265667956 7943.9659965866
112	486876 5697 237 175345 1.11 32.51 315 5 5 1575 7875
124	492573 12842 1244 175796 1.297503110771 32.597512499431 314 0.09999861208 0.100011662942 31.400008049118 3.1400016148142
123	505415 12846 1058 175610 1.262217050729 32.562213439519 314 0.099998612081 0.100011663147 31.399995049248 3.1399990147068
122	518261 8801 1244 175796 1.297503110771 32.597512499431 314 5 5 1570 7850
121	527062 8791 1058 175610 1.262217050729 32.562213439519 314 5 5 1570 7850
120	535853 469 5173 172483 2 32 31 0 0 0 0
119	536322 656 5173 172483 2 32 31 0.023297 0.02625 0.810797 0.021214625209
118	536978 469 5173 172483 2 32 31 5 5 155 775
139	537447 10433 238 175346 1.11 32.51 315 -1.4954220885793 5.0628736543602 93.143548544984 923.85984707116
138	547880 10370 238 175346 1.11 32.51 315 -1.4604221038748 2.5 43.093381566575 434.10469307517
137	558250 6957 238 175346 1.11 32.51 315 36.55 36.55 11513.25 420809.2875
136	565207 10072 238 175346 1.11 32.51 315 45.282189941406 488.60977333123 83952.523273624 27500981.981732
135	575279 10050 238 175346 1.11 32.51 315 12.614538883904 18.081449852778 4448.6528960154 63134.932389
133	585329 11168 238 175346 1.11 32.51 315 -0.0098296245058602 0.30465308389806 6.8376242873408 2.0705005494185
132	596497 10060 238 175346 1.11 32.51 315 4.9805089880374 5.7119958159363 1584.2368513261 7971.3360550829
134	606557 5697 238 175346 1.11 32.51 315 6 6 1890 11340
146	612254 12839 970 175522 1.247594780542 32.547591200207 314 0.099998614368 0.100011663076 31.399995080123 3.1399990208821
145	625093 12824 1064 175616 1.26221708075 32.562213471992 314 0.099998612191 0.100011663144 31.3999950517 3.1399990151972
144	637917 8782 970 175522 1.247594780542 32.547591200207 314 6 6 1884 11304
143	646699 8787 1064 175616 1.26221708075 32.562213471992 314 6 6 1884 11304
142	655486 469 5174 172484 2 32 31 0 0 0 0
141	655955 656 5174 172484 2 32 31 0.023297 0.02625 0.810797 0.021214625209
140	656611 469 5174 172484 2 32 31 6 6 186 1116
161	657080 10425 239 175347 1.11 32.51 315 -1.4854568324608 3.2825168961056 52.16105986949 617.47047703468
160	667505 10383 239 175347 1.11 32.51 315 -1.4553421949323 2.5 37.445968361236 412.09022248477
159	677888 6957 239 175347 1.11 32.51 315 36.55 36.55 11513.25 420809.2875
158	684845 10083 239 175347 1.11 32.51 315 36.282188987732 478.68524962526 81106.570735418 26005618.688337
157	694928 10071 239 175347 1.11 32.51 315 12.619729357974 17.549094570776 4439.2168181002 62842.117592688
155	704999 11161 239 175347 1.11 32.51 315 -0.0093026012278905 0.50741735798506 9.0051440995215 3.7128478660812
154	716160 10080 239 175347 1.11 32.51 315 4.9964428043817 5.9138766003255 1585.7638166476 7988.5634894582
156	726240 5697 239 175347 1.11 32.51 315 7 7 2205 15435
168	731937 12842 832 175384 1.212136690479 32.512133102204 314 0.099998613974 0.100011663088 31.399995072183 3.1399990192935
167	744779 12847 1070 175622 1.26221711077 32.562213505189 314 0.099998612372 0.100011663145 31.399995054877 3.1399990158326
166	757626 8792 832 175384 1.212136690479 32.512133102204 314 7 7 2198 15386
165	766418 8792 1070 175622 1.26221711077 32.562213505189 314 7 7 2198 15386
164	775210 469 5175 172485 2 32 31 0 0 0 0
163	775679 656 5175 172485 2 32 31 0.023297 0.02625 0.810797 0.021214625209
162	776335 469 5175 172485 2 32 31 7 7 217 1519
88	776804 9769 236 175829 1.11 32.6 316 0 5.0268460312766 1533.6730023256 7587.195183109
89	786573 10767 236 175829 1.11 32.6 316 -3.6989782353301 0.014322356001266 -52.088912833549 131.4327326105
90	797340 5399 236 175829 1.11 32.6 316 4 4 1264 5056
91	802739 9790 236 175829 1.11 32.6 316 12.620311445297 18.820276925648 4479.299614618 63855.952352943
92	812529 9796 236 175829 1.11 32.6 316 63.282188034058 509.46152624916 90148.184746828 30899905.743919
93	822325 6663 236 175829 1.11 32.6 316 36.55 36.55 11549.8 422145.19
94	828988 10049 236 175829 1.11 32.6 316 -1.456206425096 2.5 50.714839347313 451.57573437687
95	839037 10145 236 175829 1.11 32.6 316 -1.5000260501124 15.665121205931 366.61338480531 6047.3148162649
96	849182 438 5172 172482 2 32 31 4 4 124 496
97	849620 625 5172 172482 2 32 31 0.023297 0.02625 0.810797 0.021214625209
98	850245 438 5172 172482 2 32 31 0 0 0 0
99	850683 8459 1052 175604 1.262217020708 32.56221340798 314 4 4 1256 5024
100	859142 8780 1108 175654 1.276579020708 32.576588407859 314 4 4 1256 5024
101	867922 12811 1052 175604 1.262217020708 32.56221340798 314 0.09999861202 0.100011663146 31.39999504773 3.1399990144032
102	880733 12822 1108 175654 1.276579020708 32.576588407859 314 0.099998612014 0.100011662875 31.400008047609 3.1400016145126
