file 868467 1512143117                                          
version 2
run SinusoidalAccInjectionAttack-43-20171201-16:45:01-97369
attr CACCSpacing 5
attr attackAcc -30
attr attackPos 7
attr attackSpeed 150
attr attackStart 30
attr attacker 4
attr beaconInterval 0.1
attr configname SinusoidalAccInjectionAttack
attr controller 1
attr datetime 20171201-16:45:01
attr experiment SinusoidalAccInjectionAttack
attr fakeAcc "(4 == 4)"
attr fakePos "(4 == 2)"
attr fakeSpeed "(4 == 3)"
attr inifile omnetpp_43.ini
attr iterationvars "$attacker=4, $attackSpeed=150, $attackPos=7, $attackAcc=-30, $leaderSpeed=150, $controller=1, $CACCSpacing=5, $sController=\"CACC\", $attackStart=30, $0=5, $1=0, $nCars=8, $platoonSize=8, $nLanes=1, $beaconInterval=0.1, $priority=2, $packetSize=200, $ploegH=0.5, $leaderHeadway=1.2, $fakeSpeed=(4 == 3), $fakeAcc=(4 == 4), $fakePos=(4 == 2)"
attr iterationvarsf attacker=4,attackSpeed=150,attackPos=7,attackAcc=-30,leaderSpeed=150,controller=1,CACCSpacing=5,sController=CACC,attackStart=30,5,0,nCars=8,platoonSize=8,nLanes=1,beaconInterval=0.1,priority=2,packetSize=200,ploegH=0.5,leaderHeadway=1.2,fakeSpeed=(4_==_3),fakeAcc=(4_==_4),fakePos=(4_==_2)-
attr leaderHeadway 1.2
attr leaderSpeed 150
attr measurement "$attacker=4, $attackSpeed=150, $attackPos=7, $attackAcc=-30, $leaderSpeed=150, $controller=1, $CACCSpacing=5, $sController=\"CACC\", $attackStart=30, $0=5, $1=0, $nCars=8, $platoonSize=8, $nLanes=1, $beaconInterval=0.1, $priority=2, $packetSize=200, $ploegH=0.5, $leaderHeadway=1.2, $fakeSpeed=(4 == 3), $fakeAcc=(4 == 4), $fakePos=(4 == 2)"
attr nCars 8
attr nLanes 1
attr network scenario
attr packetSize 200
attr platoonSize 8
attr ploegH 0.5
attr priority 2
attr processid 97369
attr repetition 3
attr replication #3
attr resultdir results
attr runnumber 43
attr sController "\"CACC\""
attr seedset 3
param **.coreDebug false
param **.debug false
param **.headway 0.1s
param **.numberOfCars 8
param **.numberOfCarsPerPlatoon 8
param **.numberOfLanes 1
param **.numericController 1
param **.traffic.nCars 8
param **.traffic.nLanes 1
param **.traffic.platoonInsertDistance 5m
param **.traffic.platoonInsertHeadway 0s
param **.traffic.platoonInsertSpeed 150kmph
param **.traffic.platoonInsertTime "1 s"
param **.traffic.platoonLeaderHeadway 1.2s
param **.traffic.platoonSize 8
param **.traffic.platooningVType "\"vtypeauto\""
param **.traffic_type "\"PlatoonsTrafficManager\""
param *.**.nic.mac1609_4.bitrate 6Mbps
param *.**.nic.mac1609_4.txPower 100mW
param *.**.nic.mac1609_4.useServiceChannel false
param *.**.nic.phy80211p.analogueModels "xmldoc(\"config.xml\")"
param *.**.nic.phy80211p.decider "xmldoc(\"config.xml\")"
param *.**.nic.phy80211p.maxTXPower 100mW
param *.**.nic.phy80211p.sensitivity -94dBm
param *.**.nic.phy80211p.thermalNoise -95dBm
param *.**.nic.phy80211p.usePropagationDelay true
param *.**.nic.phy80211p.useThermalNoise true
param *.annotations.draw false
param *.connectionManager.alpha 2.0
param *.connectionManager.carrierFrequency "5.890e9 Hz"
param *.connectionManager.pMax 100mW
param *.connectionManager.sat -94dBm
param *.connectionManager.sendDirect true
param *.manager.autoShutdown true
param *.manager.commandLine "\"sumo --remote-port $port --seed $seed --configuration-file $configFile\""
param *.manager.configFile "\"./sumocfg/freeway.sumo.cfg\""
param *.manager.host "\"localhost\""
param *.manager.margin 25
param *.manager.moduleDisplayString "\"\""
param *.manager.moduleName "\"node\""
param *.manager.moduleType "\"Car\""
param *.manager.updateInterval 0.01s
param *.node[*].appl.attackStart 30s
param *.node[*].appl.attackerType 4
param *.node[*].appl.simulationDuration "60 s"
param *.node[*].appl_type "\"SimplePlatooningApp\""
param *.node[*].helper.nCars 8
param *.node[*].helper.nLanes 1
param *.node[*].helper.platoonSize 8
param *.node[*].helper_type "\"PositionHelper\""
param *.node[*].mobility.x 0
param *.node[*].mobility.y 0
param *.node[*].mobility.z 1.895
param *.node[*].prot.attackStart 30s
param *.node[*].prot.attackerType 4
param *.node[*].prot.attackingNode 3
param *.node[*].prot.beaconingInterval 0.1s
param *.node[*].prot.fakeAcc "(4 == 4)"
param *.node[*].prot.fakePos "(4 == 2)"
param *.node[*].prot.fakeSpeed "(4 == 3)"
param *.node[*].prot.maliciousAcc "-30 mpss"
param *.node[*].prot.maliciousSpeed 150kmph
param *.node[*].prot.packetSize 200
param *.node[*].prot.priority 2
param *.node[*].prot.shiftX "7 m"
param *.node[*].prot.useControllerAcceleration true
param *.node[*].protocol_type "\"SimplePlatooningBeaconing\""
param *.node[*].scenario.accHeadway 0.1s
param *.node[*].scenario.caccC1 0.5
param *.node[*].scenario.caccOmegaN "0.2 Hz"
param *.node[*].scenario.caccSpacing 5m
param *.node[*].scenario.caccXi 1
param *.node[*].scenario.controller "\"CACC\""
param *.node[*].scenario.engineTau "0.5 s"
param *.node[*].scenario.leaderHeadway 1.2s
param *.node[*].scenario.leaderSpeed 150kmph
param *.node[*].scenario.ploegH 0.5s
param *.node[*].scenario.ploegKd 0.7
param *.node[*].scenario.ploegKp 0.2
param *.node[*].scenario.useRealisticEngine false
param *.node[*].scenario_type "\"SinusoidalScenario\""
param *.node[*].unicast.packetLossRate 0
param *.obstacles.debug false
param *.playgroundSizeX 65000m
param *.playgroundSizeY 25000m
param *.playgroundSizeZ 50m
param *.world.use2D false
param *.world.useTorus false

vector 0  scenario.node[0].appl  distance  ETV
vector 1  scenario.node[0].appl  relativeSpeed  ETV
vector 2  scenario.node[0].appl  nodeId  ETV
vector 6  scenario.node[0].appl  acceleration  ETV
vector 7  scenario.node[0].appl  controllerAcceleration  ETV
vector 3  scenario.node[0].appl  speed  ETV
vector 4  scenario.node[0].appl  posx  ETV
vector 5  scenario.node[0].appl  posy  ETV
vector 22  scenario.node[1].appl  distance  ETV
vector 23  scenario.node[1].appl  relativeSpeed  ETV
vector 24  scenario.node[1].appl  nodeId  ETV
vector 28  scenario.node[1].appl  acceleration  ETV
vector 29  scenario.node[1].appl  controllerAcceleration  ETV
vector 25  scenario.node[1].appl  speed  ETV
vector 26  scenario.node[1].appl  posx  ETV
vector 27  scenario.node[1].appl  posy  ETV
vector 44  scenario.node[2].appl  distance  ETV
vector 45  scenario.node[2].appl  relativeSpeed  ETV
vector 46  scenario.node[2].appl  nodeId  ETV
vector 50  scenario.node[2].appl  acceleration  ETV
vector 51  scenario.node[2].appl  controllerAcceleration  ETV
vector 47  scenario.node[2].appl  speed  ETV
vector 48  scenario.node[2].appl  posx  ETV
vector 49  scenario.node[2].appl  posy  ETV
vector 66  scenario.node[3].appl  distance  ETV
vector 67  scenario.node[3].appl  relativeSpeed  ETV
vector 68  scenario.node[3].appl  nodeId  ETV
vector 72  scenario.node[3].appl  acceleration  ETV
vector 73  scenario.node[3].appl  controllerAcceleration  ETV
vector 69  scenario.node[3].appl  speed  ETV
vector 70  scenario.node[3].appl  posx  ETV
vector 71  scenario.node[3].appl  posy  ETV
vector 88  scenario.node[4].appl  distance  ETV
vector 89  scenario.node[4].appl  relativeSpeed  ETV
vector 90  scenario.node[4].appl  nodeId  ETV
vector 94  scenario.node[4].appl  acceleration  ETV
vector 95  scenario.node[4].appl  controllerAcceleration  ETV
vector 91  scenario.node[4].appl  speed  ETV
vector 92  scenario.node[4].appl  posx  ETV
vector 93  scenario.node[4].appl  posy  ETV
vector 110  scenario.node[5].appl  distance  ETV
vector 111  scenario.node[5].appl  relativeSpeed  ETV
vector 112  scenario.node[5].appl  nodeId  ETV
vector 116  scenario.node[5].appl  acceleration  ETV
vector 117  scenario.node[5].appl  controllerAcceleration  ETV
vector 113  scenario.node[5].appl  speed  ETV
vector 114  scenario.node[5].appl  posx  ETV
vector 115  scenario.node[5].appl  posy  ETV
vector 132  scenario.node[6].appl  distance  ETV
vector 133  scenario.node[6].appl  relativeSpeed  ETV
vector 134  scenario.node[6].appl  nodeId  ETV
vector 138  scenario.node[6].appl  acceleration  ETV
vector 139  scenario.node[6].appl  controllerAcceleration  ETV
vector 135  scenario.node[6].appl  speed  ETV
vector 136  scenario.node[6].appl  posx  ETV
vector 137  scenario.node[6].appl  posy  ETV
vector 154  scenario.node[7].appl  distance  ETV
vector 155  scenario.node[7].appl  relativeSpeed  ETV
vector 156  scenario.node[7].appl  nodeId  ETV
vector 160  scenario.node[7].appl  acceleration  ETV
vector 161  scenario.node[7].appl  controllerAcceleration  ETV
vector 157  scenario.node[7].appl  speed  ETV
vector 158  scenario.node[7].appl  posx  ETV
vector 159  scenario.node[7].appl  posy  ETV
vector 35  scenario.node[1].prot  leaderDelay  ETV
vector 33  scenario.node[1].prot  leaderDelayId  ETV
vector 36  scenario.node[1].prot  frontDelay  ETV
vector 34  scenario.node[1].prot  frontDelayId  ETV
vector 57  scenario.node[2].prot  leaderDelay  ETV
vector 55  scenario.node[2].prot  leaderDelayId  ETV
vector 79  scenario.node[3].prot  leaderDelay  ETV
vector 77  scenario.node[3].prot  leaderDelayId  ETV
vector 101  scenario.node[4].prot  leaderDelay  ETV
vector 99  scenario.node[4].prot  leaderDelayId  ETV
vector 123  scenario.node[5].prot  leaderDelay  ETV
vector 121  scenario.node[5].prot  leaderDelayId  ETV
vector 145  scenario.node[6].prot  leaderDelay  ETV
vector 143  scenario.node[6].prot  leaderDelayId  ETV
vector 167  scenario.node[7].prot  leaderDelay  ETV
vector 165  scenario.node[7].prot  leaderDelayId  ETV
vector 168  scenario.node[7].prot  frontDelay  ETV
vector 166  scenario.node[7].prot  frontDelayId  ETV
vector 58  scenario.node[2].prot  frontDelay  ETV
vector 56  scenario.node[2].prot  frontDelayId  ETV
vector 124  scenario.node[5].prot  frontDelay  ETV
vector 122  scenario.node[5].prot  frontDelayId  ETV
vector 80  scenario.node[3].prot  frontDelay  ETV
vector 78  scenario.node[3].prot  frontDelayId  ETV
vector 146  scenario.node[6].prot  frontDelay  ETV
vector 144  scenario.node[6].prot  frontDelayId  ETV
vector 102  scenario.node[4].prot  frontDelay  ETV
vector 100  scenario.node[4].prot  frontDelayId  ETV
vector 8  scenario.node[0].prot  nodeId  ETV
vector 9  scenario.node[0].prot  busyTime  ETV
vector 10  scenario.node[0].prot  collisions  ETV
vector 30  scenario.node[1].prot  nodeId  ETV
vector 31  scenario.node[1].prot  busyTime  ETV
vector 32  scenario.node[1].prot  collisions  ETV
vector 52  scenario.node[2].prot  nodeId  ETV
vector 53  scenario.node[2].prot  busyTime  ETV
vector 54  scenario.node[2].prot  collisions  ETV
vector 74  scenario.node[3].prot  nodeId  ETV
vector 75  scenario.node[3].prot  busyTime  ETV
vector 76  scenario.node[3].prot  collisions  ETV
vector 96  scenario.node[4].prot  nodeId  ETV
vector 97  scenario.node[4].prot  busyTime  ETV
vector 98  scenario.node[4].prot  collisions  ETV
vector 118  scenario.node[5].prot  nodeId  ETV
vector 119  scenario.node[5].prot  busyTime  ETV
vector 120  scenario.node[5].prot  collisions  ETV
vector 140  scenario.node[6].prot  nodeId  ETV
vector 141  scenario.node[6].prot  busyTime  ETV
vector 142  scenario.node[6].prot  collisions  ETV
vector 162  scenario.node[7].prot  nodeId  ETV
vector 163  scenario.node[7].prot  busyTime  ETV
vector 164  scenario.node[7].prot  collisions  ETV
7	11079 7277 232 170319 1.11 31.61 306 -1.5 1.5 10.822356189537 484.26089747463
6	18356 9592 232 170319 1.11 31.61 306 -1.4722746794739 1.4513241957715 2.8651811245467 323.16681728533
5	27948 6138 232 170319 1.11 31.61 306 36.55 36.55 11184.3 408786.165
4	34086 9171 232 170319 1.11 31.61 306 106.51262168844 1380.3907242272 227979.94974637 211564124.69386
3	43257 9151 232 170319 1.11 31.61 306 40.376926150007 43.631381416411 12780.537456124 534023.16598716
1	52408 4914 232 170319 1.11 31.61 306 0 0 0 0
0	57322 5220 232 170319 1.11 31.61 306 -1 -1 -306 306
2	62542 4914 232 170319 1.11 31.61 306 0 0 0 0
10	67456 423 5056 166788 2 31 30 0 0 0 0
9	67879 774 5056 166788 2 31 30 0.022754155264 0.026262199507 0.784006593171 0.020500692387295
8	68653 393 5056 166788 2 31 30 0 0 0 0
29	69046 9832 233 170320 1.11 31.61 306 -1.5233934264462 1.5241492086194 9.2763485714983 489.7637066833
28	78878 9888 233 170320 1.11 31.61 306 -1.4872877100615 1.4631892519326 1.9080582984401 325.39811284418
27	88766 6444 233 170320 1.11 31.61 306 36.55 36.55 11184.3 408786.165
26	95210 9474 233 170320 1.11 31.61 306 97.512621688843 1371.3696365942 225223.9655047 207484727.5709
25	104684 9473 233 170320 1.11 31.61 306 40.369384324891 43.636793800984 12780.292420245 534005.53583719
23	114157 10337 233 170320 1.11 31.61 306 -0.085370600681763 0.085492926698635 0.21638406800912 1.1752298677299
22	124494 9472 233 170320 1.11 31.61 306 4.9094713881116 5.1291543764278 1531.9793409556 7670.8882711472
24	133966 5220 233 170320 1.11 31.61 306 1 1 306 306
36	139186 12069 836 169810 1.269557810561 31.569565837468 304 0.09999877886 0.100011853887 30.400006807447 3.040001365924
35	151255 12069 836 169810 1.269557810561 31.569565837468 304 0.09999877886 0.100011853887 30.400006807447 3.040001365924
34	163324 8192 836 169810 1.269557810561 31.569565837468 304 1 1 304 304
33	171516 8192 836 169810 1.269557810561 31.569565837468 304 1 1 304 304
32	179708 423 5057 166789 2 31 30 0 0 0 0
31	180131 806 5057 166789 2 31 30 0.022754185285 0.026262199235 0.784006623063 0.020500693746722
30	180937 423 5057 166789 2 31 30 1 1 30 30
51	181360 9839 234 170321 1.11 31.61 306 -1.5293286435047 1.5293868318557 9.2626504173634 491.24304392707
50	191199 9915 234 170321 1.11 31.61 306 -1.4784118030896 1.4534828110477 1.6909567713846 322.03665192353
49	201114 6444 234 170321 1.11 31.61 306 36.55 36.55 11184.3 408786.165
48	207558 9482 234 170321 1.11 31.61 306 88.51262550354 1362.3721198273 222468.81262962 203454589.54213
47	217040 9460 234 170321 1.11 31.61 306 40.375322632411 43.6306157707 12780.310005626 534004.83743495
45	226500 10559 234 170321 1.11 31.61 306 -0.011889281066061 0.011086338742892 -0.036665964274221 0.010515128635721
44	237059 9464 234 170321 1.11 31.61 306 4.9825737917779 5.0363329570692 1531.1532267919 7661.5918944669
46	246523 5220 234 170321 1.11 31.61 306 2 2 612 1224
58	251743 12089 1046 170014 1.299189200831 31.599184234637 304 0.099998778849 0.100011786761 30.399993814346 3.0399987671647
57	263832 12077 842 169816 1.269557840582 31.569565867477 304 0.099998778859 0.100011853893 30.400006807435 3.0400013659216
56	275909 8199 1046 170014 1.299189200831 31.599184234637 304 2 2 608 1216
55	284108 8191 842 169816 1.269557840582 31.569565867477 304 2 2 608 1216
54	292299 423 5058 166790 2 31 30 0 0 0 0
53	292722 805 5058 166790 2 31 30 0.022754215306 0.026262199165 0.784006653041 0.02050069511067
52	293527 423 5058 166790 2 31 30 2 2 60 120
73	293950 9820 235 170322 1.11 31.61 306 -1.4888807622457 1.4893728964936 8.060574988487 457.47275413864
72	303770 9877 235 170322 1.11 31.61 306 -1.4638941767302 1.4373566378858 1.2779320393264 314.84218141808
71	313647 6444 235 170322 1.11 31.61 306 36.55 36.55 11184.3 408786.165
70	320091 9458 235 170322 1.11 31.61 306 79.51262550354 1353.3795552359 219713.74096212 199475106.6925
69	329549 9464 235 170322 1.11 31.61 306 40.39023384252 43.617117941382 12780.370339709 534005.54799529
67	339013 10374 235 170322 1.11 31.61 306 -0.037725853650961 0.033958273763183 -0.077243651086093 0.12770126719341
66	349387 9430 235 170322 1.11 31.61 306 4.9599643258495 5.0696736114792 1531.0728741764 7660.9554000429
68	358817 5220 235 170322 1.11 31.61 306 3 3 918 2754
80	364037 12095 1180 170149 1.300210350935 31.600205448766 304 0.099998778852 0.100011794637 30.399993878371 3.0399987799698
79	376132 12080 848 169822 1.269557870602 31.569565897466 304 0.099998778857 0.100011853904 30.400006807404 3.0400013659154
78	388212 8200 1180 170149 1.300210350935 31.600205448766 304 3 3 912 2736
77	396412 8206 848 169822 1.269557870602 31.569565897466 304 3 3 912 2736
76	404618 423 5059 166791 2 31 30 0 0 0 0
75	405041 803 5059 166791 2 31 30 0.022753185285 0.026262199305 0.784005623115 0.020500648242083
74	405844 423 5059 166791 2 31 30 3 3 90 270
95	406267 9836 236 170323 1.11 31.61 306 -14.302128107987 1.483355826437 -200.17333015927 2620.1130115269
94	416103 9838 236 170323 1.11 31.61 306 -9.0000000000003 1.4275171539374 -142.91466230876 1407.2395243355
93	425941 6444 236 170323 1.11 31.61 306 36.55 36.55 11184.3 408786.165
92	432385 9461 236 170323 1.11 31.61 306 70.51262550354 1334.4904814237 216906.43025688 195406006.1282
91	441846 9474 236 170323 1.11 31.61 306 27.752611068165 43.603845063763 12676.503473675 526436.26573765
89	451320 10498 236 170323 1.11 31.61 306 -0.012164311701831 13.965789790216 103.85408671454 986.94630622234
88	461818 9435 236 170323 1.11 31.61 306 4.9850564146382 14.60947969306 1581.2333679191 8467.4369237305
90	471253 5220 236 170323 1.11 31.61 306 4 4 1224 4896
102	476473 12404 1312 170293 1.306028501039 31.606023662921 304 0.099907779009 0.100089782295 30.399928942422 3.0399863132833
101	488877 12379 854 169828 1.269557900623 31.569565958162 304 0.099998778855 0.100011857929 30.400006838079 3.0400013720504
100	501256 8515 1312 170293 1.306028501039 31.606023662921 304 4 4 1216 4864
99	509771 8201 854 169828 1.269557900623 31.569565958162 304 4 4 1216 4864
98	517972 423 5060 166792 2 31 30 0 0 0 0
97	518395 807 5060 166792 2 31 30 0.022754155264 0.026262199361 0.784006582718 0.020500691838527
96	519202 423 5060 166792 2 31 30 4 4 120 480
139	519625 10133 238 170325 1.11 31.61 306 -2.508782307504 1.4846826954146 -49.961423808741 508.05527426115
138	529758 10184 238 170325 1.11 31.61 306 -2.3196200498909 1.4280810613457 -40.458666594985 350.30694149681
137	539942 6750 238 170325 1.11 31.61 306 36.55 36.55 11184.3 408786.165
136	546692 9784 238 170325 1.11 31.61 306 52.512623596191 1323.9147003041 211435.98375944 187797791.66697
135	556476 9776 238 170325 1.11 31.61 306 37.717142827053 43.600367745746 12754.286330291 531920.74068806
133	566252 10615 238 170325 1.11 31.61 306 -3.6149782410759 0.046328181019653 -24.288498378672 60.980743384785
132	576867 9774 238 170325 1.11 31.61 306 2.6966070396984 5.0375578473123 1520.2419709944 7568.7084219993
134	586641 5526 238 170325 1.11 31.61 306 6 6 1836 11016
146	592167 12380 1249 170224 1.305615440997 31.60561054666 304 0.099998778836 0.100011808713 30.399993886203 3.0399987815365
145	604547 12388 866 169840 1.269557960665 31.569565995088 304 0.099998778853 0.100011855017 30.400006814963 3.0400013674272
144	616935 8501 1249 170224 1.305615440997 31.60561054666 304 6 6 1824 10944
143	625436 8507 866 169840 1.269557960665 31.569565995088 304 6 6 1824 10944
142	633943 453 5062 166794 2 31 30 0 0 0 0
141	634396 836 5062 166794 2 31 30 0.022754095223 0.026262199288 0.784006530925 0.02050068953917
140	635232 453 5062 166794 2 31 30 6 6 180 1080
161	635685 10172 239 170326 1.11 31.61 306 -1.5021746592997 1.5049027513383 -23.816226354449 445.65495572244
160	645857 10222 239 170326 1.11 31.61 306 -1.4497273688576 1.4254867387947 -19.275569744505 297.10847813588
159	656079 6750 239 170326 1.11 31.61 306 36.55 36.55 11184.3 408786.165
158	662829 9784 239 170326 1.11 31.61 306 43.512624549866 1316.284033616 208687.66721865 184033156.05535
157	672613 9772 239 170326 1.11 31.61 306 39.768622347792 43.597038764241 12768.710997991 533054.34455808
155	682385 10864 239 170326 1.11 31.61 306 -2.0282833202397 0.0045407870941006 -14.020081034027 19.278232974102
154	693249 9783 239 170326 1.11 31.61 306 3.6716962785572 5.0189441690578 1524.6050341469 7601.6573413289
156	703032 5526 239 170326 1.11 31.61 306 7 7 2142 14994
168	708558 12389 980 169954 1.292107050727 31.592102072195 304 0.099998778853 0.100011802382 30.399993802008 3.0399987646975
167	720947 12390 872 169846 1.269557990685 31.56956602088 304 0.099998778853 0.100011854434 30.400006810735 3.0400013665816
166	733337 8504 980 169954 1.292107050727 31.592102072195 304 7 7 2128 14896
165	741841 8503 872 169846 1.269557990685 31.56956602088 304 7 7 2128 14896
164	750344 453 5063 166795 2 31 30 0 0 0 0
163	750797 835 5063 166795 2 31 30 0.022754065202 0.026262199331 0.784006502233 0.020500688242741
162	751632 453 5063 166795 2 31 30 7 7 210 1470
110	752085 9764 237 170327 1.11 31.61 307 0 5.0187625292681 1503.7601835812 7475.0708804515
111	761849 10711 237 170327 1.11 31.61 307 -6.247478748906 0.019160263687247 -57.528867102844 263.15674705379
112	772560 5545 237 170327 1.11 31.61 307 5 5 1535 7675
113	778105 9814 237 170327 1.11 31.61 307 34.051089692851 43.594400297612 12763.265098344 531206.6558339
114	787919 9809 237 170327 1.11 31.61 307 61.51262550354 1330.5379862811 215510.26227028 193370757.26387
115	797728 6773 237 170327 1.11 31.61 307 36.55 36.55 11220.85 410122.0675
116	804501 10231 237 170327 1.11 31.61 307 -5.2466728563154 1.4221569136687 -83.48231368261 623.97170853548
117	814732 10198 237 170327 1.11 31.61 307 -6.5604937011725 1.5049213281094 -112.17515535636 997.40246563584
118	824930 453 5061 166793 2 31 30 5 5 150 750
119	825383 835 5061 166793 2 31 30 0.022753125244 0.026262199367 0.78400555882 0.020500645286513
120	826218 453 5061 166793 2 31 30 0 0 0 0
121	826671 8514 860 169834 1.269557930644 31.569565972389 304 5 5 1520 7600
122	835185 8501 1112 170080 1.299602290893 31.599597340309 304 5 5 1520 7600
123	843686 12394 860 169834 1.269557930644 31.569565972389 304 0.099998778852 0.100011856063 30.400006822285 3.0400013688916
124	856080 12387 1112 170080 1.299602290893 31.599597340309 304 0.099998778842 0.100011812527 30.399993829956 3.0399987702873
