file 892641 1512144163                                          
version 2
run SinusoidalAccInjectionAttack-252-20171201-17:02:26-32640
attr CACCSpacing 20
attr attackAcc 30
attr attackPos 7
attr attackSpeed 150
attr attackStart 30
attr attacker 4
attr beaconInterval 0.1
attr configname SinusoidalAccInjectionAttack
attr controller 2
attr datetime 20171201-17:02:26
attr experiment SinusoidalAccInjectionAttack
attr fakeAcc "(4 == 4)"
attr fakePos "(4 == 2)"
attr fakeSpeed "(4 == 3)"
attr inifile omnetpp_252.ini
attr iterationvars "$attacker=4, $attackSpeed=150, $attackPos=7, $attackAcc=30, $leaderSpeed=50, $controller=2, $CACCSpacing=20, $sController=\"PLOEG\", $attackStart=30, $0=2, $1=0.5, $nCars=8, $platoonSize=8, $nLanes=1, $beaconInterval=0.1, $priority=2, $packetSize=200, $ploegH=0.5, $leaderHeadway=1.2, $fakeSpeed=(4 == 3), $fakeAcc=(4 == 4), $fakePos=(4 == 2)"
attr iterationvarsf attacker=4,attackSpeed=150,attackPos=7,attackAcc=30,leaderSpeed=50,controller=2,CACCSpacing=20,sController=PLOEG,attackStart=30,2,0.5,nCars=8,platoonSize=8,nLanes=1,beaconInterval=0.1,priority=2,packetSize=200,ploegH=0.5,leaderHeadway=1.2,fakeSpeed=(4_==_3),fakeAcc=(4_==_4),fakePos=(4_==_2)-
attr leaderHeadway 1.2
attr leaderSpeed 50
attr measurement "$attacker=4, $attackSpeed=150, $attackPos=7, $attackAcc=30, $leaderSpeed=50, $controller=2, $CACCSpacing=20, $sController=\"PLOEG\", $attackStart=30, $0=2, $1=0.5, $nCars=8, $platoonSize=8, $nLanes=1, $beaconInterval=0.1, $priority=2, $packetSize=200, $ploegH=0.5, $leaderHeadway=1.2, $fakeSpeed=(4 == 3), $fakeAcc=(4 == 4), $fakePos=(4 == 2)"
attr nCars 8
attr nLanes 1
attr network scenario
attr packetSize 200
attr platoonSize 8
attr ploegH 0.5
attr priority 2
attr processid 32640
attr repetition 2
attr replication #2
attr resultdir results
attr runnumber 252
attr sController "\"PLOEG\""
attr seedset 2
param **.coreDebug false
param **.debug false
param **.headway 0.1s
param **.numberOfCars 8
param **.numberOfCarsPerPlatoon 8
param **.numberOfLanes 1
param **.numericController 2
param **.traffic.nCars 8
param **.traffic.nLanes 1
param **.traffic.platoonInsertDistance 2m
param **.traffic.platoonInsertHeadway 0.5s
param **.traffic.platoonInsertSpeed 50kmph
param **.traffic.platoonInsertTime "1 s"
param **.traffic.platoonLeaderHeadway 1.2s
param **.traffic.platoonSize 8
param **.traffic.platooningVType "\"vtypeauto\""
param **.traffic_type "\"PlatoonsTrafficManager\""
param *.**.nic.mac1609_4.bitrate 6Mbps
param *.**.nic.mac1609_4.txPower 100mW
param *.**.nic.mac1609_4.useServiceChannel false
param *.**.nic.phy80211p.analogueModels "xmldoc(\"config.xml\")"
param *.**.nic.phy80211p.decider "xmldoc(\"config.xml\")"
param *.**.nic.phy80211p.maxTXPower 100mW
param *.**.nic.phy80211p.sensitivity -94dBm
param *.**.nic.phy80211p.thermalNoise -95dBm
param *.**.nic.phy80211p.usePropagationDelay true
param *.**.nic.phy80211p.useThermalNoise true
param *.annotations.draw false
param *.connectionManager.alpha 2.0
param *.connectionManager.carrierFrequency "5.890e9 Hz"
param *.connectionManager.pMax 100mW
param *.connectionManager.sat -94dBm
param *.connectionManager.sendDirect true
param *.manager.autoShutdown true
param *.manager.commandLine "\"sumo --remote-port $port --seed $seed --configuration-file $configFile\""
param *.manager.configFile "\"./sumocfg/freeway.sumo.cfg\""
param *.manager.host "\"localhost\""
param *.manager.margin 25
param *.manager.moduleDisplayString "\"\""
param *.manager.moduleName "\"node\""
param *.manager.moduleType "\"Car\""
param *.manager.updateInterval 0.01s
param *.node[*].appl.attackStart 30s
param *.node[*].appl.attackerType 4
param *.node[*].appl.simulationDuration "60 s"
param *.node[*].appl_type "\"SimplePlatooningApp\""
param *.node[*].helper.nCars 8
param *.node[*].helper.nLanes 1
param *.node[*].helper.platoonSize 8
param *.node[*].helper_type "\"PositionHelper\""
param *.node[*].mobility.x 0
param *.node[*].mobility.y 0
param *.node[*].mobility.z 1.895
param *.node[*].prot.attackStart 30s
param *.node[*].prot.attackerType 4
param *.node[*].prot.attackingNode 3
param *.node[*].prot.beaconingInterval 0.1s
param *.node[*].prot.fakeAcc "(4 == 4)"
param *.node[*].prot.fakePos "(4 == 2)"
param *.node[*].prot.fakeSpeed "(4 == 3)"
param *.node[*].prot.maliciousAcc "30 mpss"
param *.node[*].prot.maliciousSpeed 150kmph
param *.node[*].prot.packetSize 200
param *.node[*].prot.priority 2
param *.node[*].prot.shiftX "7 m"
param *.node[*].prot.useControllerAcceleration true
param *.node[*].protocol_type "\"SimplePlatooningBeaconing\""
param *.node[*].scenario.accHeadway 0.1s
param *.node[*].scenario.caccC1 0.5
param *.node[*].scenario.caccOmegaN "0.2 Hz"
param *.node[*].scenario.caccSpacing 20m
param *.node[*].scenario.caccXi 1
param *.node[*].scenario.controller "\"PLOEG\""
param *.node[*].scenario.engineTau "0.5 s"
param *.node[*].scenario.leaderHeadway 1.2s
param *.node[*].scenario.leaderSpeed 50kmph
param *.node[*].scenario.ploegH 0.5s
param *.node[*].scenario.ploegKd 0.7
param *.node[*].scenario.ploegKp 0.2
param *.node[*].scenario.useRealisticEngine false
param *.node[*].scenario_type "\"SinusoidalScenario\""
param *.node[*].unicast.packetLossRate 0
param *.obstacles.debug false
param *.playgroundSizeX 65000m
param *.playgroundSizeY 25000m
param *.playgroundSizeZ 50m
param *.world.use2D false
param *.world.useTorus false

vector 0  scenario.node[0].appl  distance  ETV
vector 1  scenario.node[0].appl  relativeSpeed  ETV
vector 2  scenario.node[0].appl  nodeId  ETV
vector 6  scenario.node[0].appl  acceleration  ETV
vector 7  scenario.node[0].appl  controllerAcceleration  ETV
vector 3  scenario.node[0].appl  speed  ETV
vector 4  scenario.node[0].appl  posx  ETV
vector 5  scenario.node[0].appl  posy  ETV
vector 22  scenario.node[1].appl  distance  ETV
vector 23  scenario.node[1].appl  relativeSpeed  ETV
vector 24  scenario.node[1].appl  nodeId  ETV
vector 28  scenario.node[1].appl  acceleration  ETV
vector 29  scenario.node[1].appl  controllerAcceleration  ETV
vector 25  scenario.node[1].appl  speed  ETV
vector 26  scenario.node[1].appl  posx  ETV
vector 27  scenario.node[1].appl  posy  ETV
vector 44  scenario.node[2].appl  distance  ETV
vector 45  scenario.node[2].appl  relativeSpeed  ETV
vector 46  scenario.node[2].appl  nodeId  ETV
vector 50  scenario.node[2].appl  acceleration  ETV
vector 51  scenario.node[2].appl  controllerAcceleration  ETV
vector 47  scenario.node[2].appl  speed  ETV
vector 48  scenario.node[2].appl  posx  ETV
vector 49  scenario.node[2].appl  posy  ETV
vector 66  scenario.node[3].appl  distance  ETV
vector 67  scenario.node[3].appl  relativeSpeed  ETV
vector 68  scenario.node[3].appl  nodeId  ETV
vector 72  scenario.node[3].appl  acceleration  ETV
vector 73  scenario.node[3].appl  controllerAcceleration  ETV
vector 69  scenario.node[3].appl  speed  ETV
vector 70  scenario.node[3].appl  posx  ETV
vector 71  scenario.node[3].appl  posy  ETV
vector 88  scenario.node[4].appl  distance  ETV
vector 89  scenario.node[4].appl  relativeSpeed  ETV
vector 90  scenario.node[4].appl  nodeId  ETV
vector 94  scenario.node[4].appl  acceleration  ETV
vector 95  scenario.node[4].appl  controllerAcceleration  ETV
vector 91  scenario.node[4].appl  speed  ETV
vector 92  scenario.node[4].appl  posx  ETV
vector 93  scenario.node[4].appl  posy  ETV
vector 110  scenario.node[5].appl  distance  ETV
vector 111  scenario.node[5].appl  relativeSpeed  ETV
vector 112  scenario.node[5].appl  nodeId  ETV
vector 116  scenario.node[5].appl  acceleration  ETV
vector 117  scenario.node[5].appl  controllerAcceleration  ETV
vector 113  scenario.node[5].appl  speed  ETV
vector 114  scenario.node[5].appl  posx  ETV
vector 115  scenario.node[5].appl  posy  ETV
vector 132  scenario.node[6].appl  distance  ETV
vector 133  scenario.node[6].appl  relativeSpeed  ETV
vector 134  scenario.node[6].appl  nodeId  ETV
vector 138  scenario.node[6].appl  acceleration  ETV
vector 139  scenario.node[6].appl  controllerAcceleration  ETV
vector 135  scenario.node[6].appl  speed  ETV
vector 136  scenario.node[6].appl  posx  ETV
vector 137  scenario.node[6].appl  posy  ETV
vector 154  scenario.node[7].appl  distance  ETV
vector 155  scenario.node[7].appl  relativeSpeed  ETV
vector 156  scenario.node[7].appl  nodeId  ETV
vector 160  scenario.node[7].appl  acceleration  ETV
vector 161  scenario.node[7].appl  controllerAcceleration  ETV
vector 157  scenario.node[7].appl  speed  ETV
vector 158  scenario.node[7].appl  posx  ETV
vector 159  scenario.node[7].appl  posy  ETV
vector 168  scenario.node[7].prot  frontDelay  ETV
vector 166  scenario.node[7].prot  frontDelayId  ETV
vector 146  scenario.node[6].prot  frontDelay  ETV
vector 144  scenario.node[6].prot  frontDelayId  ETV
vector 35  scenario.node[1].prot  leaderDelay  ETV
vector 33  scenario.node[1].prot  leaderDelayId  ETV
vector 36  scenario.node[1].prot  frontDelay  ETV
vector 34  scenario.node[1].prot  frontDelayId  ETV
vector 57  scenario.node[2].prot  leaderDelay  ETV
vector 55  scenario.node[2].prot  leaderDelayId  ETV
vector 79  scenario.node[3].prot  leaderDelay  ETV
vector 77  scenario.node[3].prot  leaderDelayId  ETV
vector 101  scenario.node[4].prot  leaderDelay  ETV
vector 99  scenario.node[4].prot  leaderDelayId  ETV
vector 123  scenario.node[5].prot  leaderDelay  ETV
vector 121  scenario.node[5].prot  leaderDelayId  ETV
vector 145  scenario.node[6].prot  leaderDelay  ETV
vector 143  scenario.node[6].prot  leaderDelayId  ETV
vector 167  scenario.node[7].prot  leaderDelay  ETV
vector 165  scenario.node[7].prot  leaderDelayId  ETV
vector 102  scenario.node[4].prot  frontDelay  ETV
vector 100  scenario.node[4].prot  frontDelayId  ETV
vector 80  scenario.node[3].prot  frontDelay  ETV
vector 78  scenario.node[3].prot  frontDelayId  ETV
vector 124  scenario.node[5].prot  frontDelay  ETV
vector 122  scenario.node[5].prot  frontDelayId  ETV
vector 58  scenario.node[2].prot  frontDelay  ETV
vector 56  scenario.node[2].prot  frontDelayId  ETV
vector 8  scenario.node[0].prot  nodeId  ETV
vector 9  scenario.node[0].prot  busyTime  ETV
vector 10  scenario.node[0].prot  collisions  ETV
vector 30  scenario.node[1].prot  nodeId  ETV
vector 31  scenario.node[1].prot  busyTime  ETV
vector 32  scenario.node[1].prot  collisions  ETV
vector 52  scenario.node[2].prot  nodeId  ETV
vector 53  scenario.node[2].prot  busyTime  ETV
vector 54  scenario.node[2].prot  collisions  ETV
vector 74  scenario.node[3].prot  nodeId  ETV
vector 75  scenario.node[3].prot  busyTime  ETV
vector 76  scenario.node[3].prot  collisions  ETV
vector 96  scenario.node[4].prot  nodeId  ETV
vector 97  scenario.node[4].prot  busyTime  ETV
vector 98  scenario.node[4].prot  collisions  ETV
vector 118  scenario.node[5].prot  nodeId  ETV
vector 119  scenario.node[5].prot  busyTime  ETV
vector 120  scenario.node[5].prot  collisions  ETV
vector 140  scenario.node[6].prot  nodeId  ETV
vector 141  scenario.node[6].prot  busyTime  ETV
vector 142  scenario.node[6].prot  collisions  ETV
vector 162  scenario.node[7].prot  nodeId  ETV
vector 163  scenario.node[7].prot  busyTime  ETV
vector 164  scenario.node[7].prot  collisions  ETV
7	11089 7537 232 175340 1.11 32.51 315 -1.5 1.5 13.74602282122 493.80984018651
6	18626 9866 232 175340 1.11 32.51 315 -1.472274679513 1.4513407705126 12.847980579563 335.54193341154
5	28492 6327 232 175340 1.11 32.51 315 36.55 36.55 11513.25 420809.2875
4	34819 9444 232 175340 1.11 32.51 315 126.89329872118 566.80924958706 109638.95315069 43273171.416656
3	44263 9444 232 175340 1.11 32.51 315 12.59914837223 15.853603639796 4413.4962061814 62069.476181984
1	53707 5067 232 175340 1.11 32.51 315 0 0 0 0
0	58774 5382 232 175340 1.11 32.51 315 -1 -1 -315 315
2	64156 5067 232 175340 1.11 32.51 315 0 0 0 0
10	69223 438 5168 172478 2 32 31 0 0 0 0
9	69661 594 5168 172478 2 32 31 0.023297 0.02625 0.810797 0.021214625209
8	70255 407 5168 172478 2 32 31 0 0 0 0
29	70662 10162 233 175341 1.11 32.51 315 -1.5368749871319 1.5234409395208 13.290150761565 369.97031064818
28	80824 10234 233 175341 1.11 32.51 315 -1.4452178804923 1.3764917382996 7.7679853268355 260.73270355413
27	91058 6642 233 175341 1.11 32.51 315 36.55 36.55 11513.25 420809.2875
26	97700 9758 233 175341 1.11 32.51 315 113.94885597229 553.39737153446 105543.76620239 40481631.015228
25	107458 9765 233 175341 1.11 32.51 315 12.778466618302 15.691136952006 4408.6375131848 61886.873343868
23	117223 10369 233 175341 1.11 32.51 315 -0.73571924772851 0.72026850008209 4.73021319085 73.615034123671
22	127592 9758 233 175341 1.11 32.51 315 8.3393418515179 9.8806061808822 2835.0897744432 25569.808345788
24	137350 5382 233 175341 1.11 32.51 315 1 1 315 315
36	142732 12478 1034 175029 1.262217338518 32.462215568715 313 0.099998871831 0.100011990865 31.299997180113 3.1299994399102
35	155210 12478 1034 175029 1.262217338518 32.462215568715 313 0.099998871831 0.100011990865 31.299997180113 3.1299994399102
34	167688 8440 1034 175029 1.262217338518 32.462215568715 313 1 1 313 313
33	176128 8440 1034 175029 1.262217338518 32.462215568715 313 1 1 313 313
32	184568 438 5169 172479 2 32 31 0 0 0 0
31	185006 625 5169 172479 2 32 31 0.023296 0.02625 0.810796 0.021214578616
30	185631 438 5169 172479 2 32 31 1 1 31 31
51	186069 10198 234 175342 1.11 32.51 315 -1.5020342158272 1.436030420327 7.4596934746845 282.8231240509
50	196267 10251 234 175342 1.11 32.51 315 -1.3544328151898 1.2376391374156 1.2756392165446 197.22909726799
49	206518 6642 234 175342 1.11 32.51 315 36.55 36.55 11513.25 420809.2875
48	213160 9758 234 175342 1.11 32.51 315 101.00441322327 540.34372433186 101450.24323328 37797817.832064
47	222918 9759 234 175342 1.11 32.51 315 12.923276325014 15.56295613195 4407.3173606072 61814.015747447
45	232677 10360 234 175342 1.11 32.51 315 -0.68794286044842 0.64296083799674 1.2424727243612 53.868370253404
44	243037 9749 234 175342 1.11 32.51 315 8.4284033435375 9.7975792107476 2833.4965660506 25529.115370275
46	252786 5382 234 175342 1.11 32.51 315 2 2 630 1260
58	258168 12483 1312 175302 1.30259672712 32.50260789778 313 0.099998868736 0.100011995533 31.300010120576 3.1300020281436
57	270651 12493 1040 175035 1.262217381696 32.462215612148 313 0.099998872049 0.100011990882 31.299997180368 3.1299994399612
56	283144 8440 1312 175302 1.30259672712 32.50260789778 313 2 2 626 1252
55	291584 8438 1040 175035 1.262217381696 32.462215612148 313 2 2 626 1252
54	300022 438 5170 172480 2 32 31 0 0 0 0
53	300460 625 5170 172480 2 32 31 0.023297 0.02625 0.810797 0.021214625209
52	301085 438 5170 172480 2 32 31 2 2 62 124
73	301523 10264 235 175343 1.11 32.51 315 -1.4075543327505 1.2907608630279 0.64338222110828 213.67111345639
72	311787 10320 235 175343 1.11 32.51 315 -1.2452155917131 1.0914427248945 -4.0273901087533 149.87540167513
71	322107 6642 235 175343 1.11 32.51 315 36.55 36.55 11513.25 420809.2875
70	328749 9758 235 175343 1.11 32.51 315 88.059966659546 527.57967944854 97356.176560504 35219601.739603
69	338507 9762 235 175343 1.11 32.51 315 13.038958480628 15.461370471298 4408.9381289186 61831.820732954
67	348269 10402 235 175343 1.11 32.51 315 -0.63471135531953 0.57017761256424 -1.6335247036502 40.822512255184
66	358671 9753 235 175343 1.11 32.51 315 8.4909847355721 9.7431429368315 2834.0990881454 25532.22923352
68	368424 5382 235 175343 1.11 32.51 315 3 3 945 2835
80	373806 12481 1176 175165 1.28787351123 32.487884739672 313 0.099998877449 0.100011995449 31.300010178358 3.1300020396998
79	386287 12487 1046 175041 1.262217424874 32.462215654639 313 0.099998872211 0.100011990993 31.299997179681 3.1299994398238
78	398774 8442 1176 175165 1.28787351123 32.487884739672 313 3 3 939 2817
77	407216 8445 1046 175041 1.262217424874 32.462215654639 313 3 3 939 2817
76	415661 438 5171 172481 2 32 31 0 0 0 0
75	416099 625 5171 172481 2 32 31 0.023297 0.02625 0.810797 0.021214625209
74	416724 438 5171 172481 2 32 31 3 3 93 279
117	417162 10643 237 175345 1.11 32.51 315 -1.1848235693185 23.023084994157 384.85137784929 7489.8345274835
116	427805 10614 237 175345 1.11 32.51 315 -1.0372259769479 2.5 57.648630039062 207.24131706791
115	438419 6957 237 175345 1.11 32.51 315 36.55 36.55 11513.25 420809.2875
114	445376 10075 237 175345 1.11 32.51 315 62.171077346802 508.90695323414 89210.320215158 30423747.058192
113	455451 10063 237 175345 1.11 32.51 315 13.226045291292 19.546299586384 4483.2483754389 64108.962037314
111	465514 10721 237 175345 1.11 32.51 315 -0.53004514274496 0.57396074094959 15.737631498673 29.399806726337
110	476235 10067 237 175345 1.11 32.51 315 8.5911355324792 10.549032380383 2859.914768259 26005.538848154
112	486302 5697 237 175345 1.11 32.51 315 5 5 1575 7875
124	491999 12787 1244 175239 1.297503597586 32.497501802587 313 0.099998870538 0.100011995101 31.299997154917 3.1299994348718
123	504786 12805 1058 175053 1.26221751123 32.462215717939 313 0.099998870222 0.100011991255 31.299997156625 3.1299994352127
122	517591 8752 1244 175239 1.297503597586 32.497501802587 313 5 5 1565 7825
121	526343 8764 1058 175053 1.26221751123 32.462215717939 313 5 5 1565 7825
120	535107 469 5173 172483 2 32 31 0 0 0 0
119	535576 656 5173 172483 2 32 31 0.023297 0.02625 0.810797 0.021214625209
118	536232 469 5173 172483 2 32 31 5 5 155 775
139	536701 10651 238 175346 1.11 32.51 315 -1.0795226888704 20.965038071815 263.09501228715 4156.0030491566
138	547352 10607 238 175346 1.11 32.51 315 -0.94671686332983 2.5 50.187853930865 171.7479981914
137	557959 6957 238 175346 1.11 32.51 315 36.55 36.55 11513.25 420809.2875
136	564916 10078 238 175346 1.11 32.51 315 49.22663269043 494.23403338197 85092.589711306 28139905.083963
135	574994 10075 238 175346 1.11 32.51 315 13.304860115594 18.789069334105 4465.6987402598 63520.643244982
133	585069 10695 238 175346 1.11 32.51 315 -0.48340271690784 0.73223025227953 16.973148878702 27.610786802958
132	595764 10082 238 175346 1.11 32.51 315 8.6331835472024 10.657775247122 2857.3795111481 25956.096115611
134	605846 5697 238 175346 1.11 32.51 315 6 6 1890 11340
146	611543 12795 970 174965 1.247595122628 32.447593378682 313 0.099998873273 0.100011995284 31.29999720597 3.1299994450822
145	624338 12793 1064 175059 1.262217554408 32.462215766756 313 0.099998870474 0.10001199134 31.299997162264 3.1299994363405
144	637131 8751 970 174965 1.247595122628 32.447593378682 313 6 6 1878 11268
143	645882 8758 1064 175059 1.262217554408 32.462215766756 313 6 6 1878 11268
142	654640 469 5174 172484 2 32 31 0 0 0 0
141	655109 656 5174 172484 2 32 31 0.023297 0.02625 0.810797 0.021214625209
140	655765 469 5174 172484 2 32 31 6 6 186 1116
161	656234 10680 239 175347 1.11 32.51 315 -0.98715397978875 16.910040898834 163.5235963049 1919.6273098051
160	666914 10670 239 175347 1.11 32.51 315 -0.86778443758337 2.5 41.535812983683 137.82142164583
159	677584 6957 239 175347 1.11 32.51 315 36.55 36.55 11513.25 420809.2875
158	684541 10075 239 175347 1.11 32.51 315 36.282188987732 479.67297747122 80979.697053663 25967942.346597
157	694616 10079 239 175347 1.11 32.51 315 13.374344247672 17.930959462249 4449.2325728704 62981.137700437
155	704695 10703 239 175347 1.11 32.51 315 -0.44267531565502 0.83310987185575 15.964288850074 24.746791501977
154	715398 10076 239 175347 1.11 32.51 315 8.6702292115179 10.543893713316 2852.5633342951 25860.879688445
156	725474 5697 239 175347 1.11 32.51 315 7 7 2205 15435
168	731171 12836 832 175378 1.212136993094 32.512134100317 314 0.099998867431 0.100011995232 31.399996057139 3.1399992153162
167	744007 12788 1070 175065 1.262217597586 32.462215815183 313 0.09999887076 0.10001199139 31.299997167513 3.1299994373903
166	756795 8784 832 175378 1.212136993094 32.512134100317 314 7 7 2198 15386
165	765579 8753 1070 175065 1.262217597586 32.462215815183 313 7 7 2191 15337
164	774332 469 5175 172485 2 32 31 0 0 0 0
163	774801 656 5175 172485 2 32 31 0.023297 0.02625 0.810797 0.021214625209
162	775457 469 5175 172485 2 32 31 7 7 217 1519
88	775926 9772 236 175484 1.11 32.53 316 0 9.6980981891467 2767.4277820176 24740.062637613
89	785698 10396 236 175484 1.11 32.53 316 -6.7569862132925 0.50045646148005 -97.400831346382 533.4001514176
90	796094 5400 236 175484 1.11 32.53 316 4 4 1264 5056
91	801494 9778 236 175484 1.11 32.53 316 13.138195463353 20.195260327334 4519.8175082802 65075.993569769
92	811272 9797 236 175484 1.11 32.53 316 75.115523910522 523.87212003589 93854.434580903 33091887.012619
93	821069 6664 236 175484 1.11 32.53 316 36.55 36.55 11549.8 422145.19
94	827733 10327 236 175484 1.11 32.53 316 -1.1384636437374 2.5 66.12410152297 252.86713279581
95	838060 10314 236 175484 1.11 32.53 316 -1.2975792652197 24.752127814788 544.5467334638 12344.98523515
96	848374 438 5172 172482 2 32 31 4 4 124 496
97	848812 625 5172 172482 2 32 31 0.023297 0.02625 0.810797 0.021214625209
98	849437 438 5172 172482 2 32 31 0 0 0 0
99	849875 8443 1052 175047 1.262217468052 32.462215669468 313 4 4 1252 5008
100	858318 8748 1108 175097 1.276579468052 32.476590669247 313 4 4 1252 5008
101	867066 12791 1052 175047 1.262217468052 32.462215669468 313 0.099998870022 0.100011991133 31.299997151332 3.1299994341541
102	879857 12784 1108 175097 1.276579468052 32.476590669247 313 0.099998875012 0.100011995759 31.300010151111 3.1300020342504
