file 1061052 1501697477                                         
version 2
run SinusoidalAccInjectionAttack-29-20170802-20:10:57-28323
attr CACCSpacing 20
attr attackAcc -30
attr attackPos 7
attr attackSpeed 150
attr attackStart 30
attr attacker 4
attr beaconInterval 0.1
attr configname SinusoidalAccInjectionAttack
attr controller 1
attr datetime 20170802-20:10:57
attr experiment SinusoidalAccInjectionAttack
attr fakeAcc "(4 == 4)"
attr fakePos "(4 == 2)"
attr fakeSpeed "(4 == 3)"
attr inifile omnetpp_29.ini
attr iterationvars "$attacker=4, $attackSpeed=150, $attackPos=7, $attackAcc=-30, $leaderSpeed=100, $controller=1, $CACCSpacing=20, $sController=\"CACC\", $attackStart=30, $0=20, $1=0, $nCars=8, $platoonSize=8, $nLanes=1, $beaconInterval=0.1, $priority=2, $packetSize=200, $ploegH=0.5, $leaderHeadway=1.2, $fakeSpeed=(4 == 3), $fakeAcc=(4 == 4), $fakePos=(4 == 2)"
attr iterationvarsf attacker=4,attackSpeed=150,attackPos=7,attackAcc=-30,leaderSpeed=100,controller=1,CACCSpacing=20,sController=CACC,attackStart=30,20,0,nCars=8,platoonSize=8,nLanes=1,beaconInterval=0.1,priority=2,packetSize=200,ploegH=0.5,leaderHeadway=1.2,fakeSpeed=(4_==_3),fakeAcc=(4_==_4),fakePos=(4_==_2)-
attr leaderHeadway 1.2
attr leaderSpeed 100
attr measurement "$attacker=4, $attackSpeed=150, $attackPos=7, $attackAcc=-30, $leaderSpeed=100, $controller=1, $CACCSpacing=20, $sController=\"CACC\", $attackStart=30, $0=20, $1=0, $nCars=8, $platoonSize=8, $nLanes=1, $beaconInterval=0.1, $priority=2, $packetSize=200, $ploegH=0.5, $leaderHeadway=1.2, $fakeSpeed=(4 == 3), $fakeAcc=(4 == 4), $fakePos=(4 == 2)"
attr nCars 8
attr nLanes 1
attr network scenario
attr packetSize 200
attr platoonSize 8
attr ploegH 0.5
attr priority 2
attr processid 28323
attr repetition 4
attr replication #4
attr resultdir results
attr runnumber 29
attr sController "\"CACC\""
attr seedset 4
param **.coreDebug false
param **.debug false
param **.headway 0.1s
param **.numberOfCars 8
param **.numberOfCarsPerPlatoon 8
param **.numberOfLanes 1
param **.numericController 1
param **.traffic.nCars 8
param **.traffic.nLanes 1
param **.traffic.platoonInsertDistance 20m
param **.traffic.platoonInsertHeadway 0s
param **.traffic.platoonInsertSpeed 100kmph
param **.traffic.platoonInsertTime "1 s"
param **.traffic.platoonLeaderHeadway 1.2s
param **.traffic.platoonSize 8
param **.traffic.platooningVType "\"vtypeauto\""
param **.traffic_type "\"PlatoonsTrafficManager\""
param *.**.nic.mac1609_4.bitrate 6Mbps
param *.**.nic.mac1609_4.txPower 100mW
param *.**.nic.mac1609_4.useServiceChannel false
param *.**.nic.phy80211p.analogueModels "xmldoc(\"config.xml\")"
param *.**.nic.phy80211p.decider "xmldoc(\"config.xml\")"
param *.**.nic.phy80211p.maxTXPower 100mW
param *.**.nic.phy80211p.sensitivity -94dBm
param *.**.nic.phy80211p.thermalNoise -95dBm
param *.**.nic.phy80211p.usePropagationDelay true
param *.**.nic.phy80211p.useThermalNoise true
param *.annotations.draw false
param *.connectionManager.alpha 2.0
param *.connectionManager.carrierFrequency "5.890e9 Hz"
param *.connectionManager.pMax 100mW
param *.connectionManager.sat -94dBm
param *.connectionManager.sendDirect true
param *.manager.autoShutdown true
param *.manager.commandLine "\"sumo --remote-port $port --seed $seed --configuration-file $configFile\""
param *.manager.configFile "\"./sumocfg/freeway.sumo.cfg\""
param *.manager.host "\"localhost\""
param *.manager.margin 25
param *.manager.moduleDisplayString "\"\""
param *.manager.moduleName "\"node\""
param *.manager.moduleType "\"Car\""
param *.manager.updateInterval 0.01s
param *.node[*].appl.attackStart 30s
param *.node[*].appl.attackerType 4
param *.node[*].appl.simulationDuration "60 s"
param *.node[*].appl_type "\"SimplePlatooningApp\""
param *.node[*].helper.nCars 8
param *.node[*].helper.nLanes 1
param *.node[*].helper.platoonSize 8
param *.node[*].helper_type "\"PositionHelper\""
param *.node[*].mobility.x 0
param *.node[*].mobility.y 0
param *.node[*].mobility.z 1.895
param *.node[*].prot.attackStart 30s
param *.node[*].prot.attackerType 4
param *.node[*].prot.attackingNode 3
param *.node[*].prot.beaconingInterval 0.1s
param *.node[*].prot.fakeAcc "(4 == 4)"
param *.node[*].prot.fakePos "(4 == 2)"
param *.node[*].prot.fakeSpeed "(4 == 3)"
param *.node[*].prot.maliciousAcc "-30 mpss"
param *.node[*].prot.maliciousSpeed 150kmph
param *.node[*].prot.packetSize 200
param *.node[*].prot.priority 2
param *.node[*].prot.shiftX "7 m"
param *.node[*].prot.useControllerAcceleration true
param *.node[*].protocol_type "\"SimplePlatooningBeaconing\""
param *.node[*].scenario.accHeadway 0.1s
param *.node[*].scenario.caccC1 0.5
param *.node[*].scenario.caccOmegaN "0.2 Hz"
param *.node[*].scenario.caccSpacing 20m
param *.node[*].scenario.caccXi 1
param *.node[*].scenario.controller "\"CACC\""
param *.node[*].scenario.engineTau "0.5 s"
param *.node[*].scenario.leaderHeadway 1.2s
param *.node[*].scenario.leaderOscillationFrequency "0.2 Hz"
param *.node[*].scenario.leaderSpeed 100kmph
param *.node[*].scenario.oscillationAmplitude "10 kmph"
param *.node[*].scenario.ploegH 0.5s
param *.node[*].scenario.ploegKd 0.7
param *.node[*].scenario.ploegKp 0.2
param *.node[*].scenario.startOscillating "5 s"
param *.node[*].scenario.useRealisticEngine false
param *.node[*].scenario_type "\"SinusoidalScenario\""
param *.node[*].unicast.packetLossRate 0
param *.obstacles.debug false
param *.playgroundSizeX 65000m
param *.playgroundSizeY 25000m
param *.playgroundSizeZ 50m
param *.world.use2D false
param *.world.useTorus false

vector 0  scenario.node[0].appl  distance  ETV
vector 1  scenario.node[0].appl  relativeSpeed  ETV
vector 2  scenario.node[0].appl  nodeId  ETV
vector 6  scenario.node[0].appl  acceleration  ETV
vector 7  scenario.node[0].appl  controllerAcceleration  ETV
vector 3  scenario.node[0].appl  speed  ETV
vector 4  scenario.node[0].appl  posx  ETV
vector 5  scenario.node[0].appl  posy  ETV
vector 22  scenario.node[1].appl  distance  ETV
vector 23  scenario.node[1].appl  relativeSpeed  ETV
vector 24  scenario.node[1].appl  nodeId  ETV
vector 28  scenario.node[1].appl  acceleration  ETV
vector 29  scenario.node[1].appl  controllerAcceleration  ETV
vector 25  scenario.node[1].appl  speed  ETV
vector 26  scenario.node[1].appl  posx  ETV
vector 27  scenario.node[1].appl  posy  ETV
vector 44  scenario.node[2].appl  distance  ETV
vector 45  scenario.node[2].appl  relativeSpeed  ETV
vector 46  scenario.node[2].appl  nodeId  ETV
vector 50  scenario.node[2].appl  acceleration  ETV
vector 51  scenario.node[2].appl  controllerAcceleration  ETV
vector 47  scenario.node[2].appl  speed  ETV
vector 48  scenario.node[2].appl  posx  ETV
vector 49  scenario.node[2].appl  posy  ETV
vector 66  scenario.node[3].appl  distance  ETV
vector 67  scenario.node[3].appl  relativeSpeed  ETV
vector 68  scenario.node[3].appl  nodeId  ETV
vector 72  scenario.node[3].appl  acceleration  ETV
vector 73  scenario.node[3].appl  controllerAcceleration  ETV
vector 69  scenario.node[3].appl  speed  ETV
vector 70  scenario.node[3].appl  posx  ETV
vector 71  scenario.node[3].appl  posy  ETV
vector 88  scenario.node[4].appl  distance  ETV
vector 89  scenario.node[4].appl  relativeSpeed  ETV
vector 90  scenario.node[4].appl  nodeId  ETV
vector 94  scenario.node[4].appl  acceleration  ETV
vector 95  scenario.node[4].appl  controllerAcceleration  ETV
vector 91  scenario.node[4].appl  speed  ETV
vector 92  scenario.node[4].appl  posx  ETV
vector 93  scenario.node[4].appl  posy  ETV
vector 110  scenario.node[5].appl  distance  ETV
vector 111  scenario.node[5].appl  relativeSpeed  ETV
vector 112  scenario.node[5].appl  nodeId  ETV
vector 116  scenario.node[5].appl  acceleration  ETV
vector 117  scenario.node[5].appl  controllerAcceleration  ETV
vector 113  scenario.node[5].appl  speed  ETV
vector 114  scenario.node[5].appl  posx  ETV
vector 115  scenario.node[5].appl  posy  ETV
vector 132  scenario.node[6].appl  distance  ETV
vector 133  scenario.node[6].appl  relativeSpeed  ETV
vector 134  scenario.node[6].appl  nodeId  ETV
vector 138  scenario.node[6].appl  acceleration  ETV
vector 139  scenario.node[6].appl  controllerAcceleration  ETV
vector 135  scenario.node[6].appl  speed  ETV
vector 136  scenario.node[6].appl  posx  ETV
vector 137  scenario.node[6].appl  posy  ETV
vector 154  scenario.node[7].appl  distance  ETV
vector 155  scenario.node[7].appl  relativeSpeed  ETV
vector 156  scenario.node[7].appl  nodeId  ETV
vector 160  scenario.node[7].appl  acceleration  ETV
vector 161  scenario.node[7].appl  controllerAcceleration  ETV
vector 157  scenario.node[7].appl  speed  ETV
vector 158  scenario.node[7].appl  posx  ETV
vector 159  scenario.node[7].appl  posy  ETV
vector 102  scenario.node[4].prot  frontDelay  ETV
vector 100  scenario.node[4].prot  frontDelayId  ETV
vector 35  scenario.node[1].prot  leaderDelay  ETV
vector 33  scenario.node[1].prot  leaderDelayId  ETV
vector 36  scenario.node[1].prot  frontDelay  ETV
vector 34  scenario.node[1].prot  frontDelayId  ETV
vector 57  scenario.node[2].prot  leaderDelay  ETV
vector 55  scenario.node[2].prot  leaderDelayId  ETV
vector 79  scenario.node[3].prot  leaderDelay  ETV
vector 77  scenario.node[3].prot  leaderDelayId  ETV
vector 101  scenario.node[4].prot  leaderDelay  ETV
vector 99  scenario.node[4].prot  leaderDelayId  ETV
vector 123  scenario.node[5].prot  leaderDelay  ETV
vector 121  scenario.node[5].prot  leaderDelayId  ETV
vector 145  scenario.node[6].prot  leaderDelay  ETV
vector 143  scenario.node[6].prot  leaderDelayId  ETV
vector 167  scenario.node[7].prot  leaderDelay  ETV
vector 165  scenario.node[7].prot  leaderDelayId  ETV
vector 80  scenario.node[3].prot  frontDelay  ETV
vector 78  scenario.node[3].prot  frontDelayId  ETV
vector 146  scenario.node[6].prot  frontDelay  ETV
vector 144  scenario.node[6].prot  frontDelayId  ETV
vector 58  scenario.node[2].prot  frontDelay  ETV
vector 56  scenario.node[2].prot  frontDelayId  ETV
vector 124  scenario.node[5].prot  frontDelay  ETV
vector 122  scenario.node[5].prot  frontDelayId  ETV
vector 168  scenario.node[7].prot  frontDelay  ETV
vector 166  scenario.node[7].prot  frontDelayId  ETV
vector 8  scenario.node[0].prot  nodeId  ETV
vector 9  scenario.node[0].prot  busyTime  ETV
vector 10  scenario.node[0].prot  collisions  ETV
vector 30  scenario.node[1].prot  nodeId  ETV
vector 31  scenario.node[1].prot  busyTime  ETV
vector 32  scenario.node[1].prot  collisions  ETV
vector 52  scenario.node[2].prot  nodeId  ETV
vector 53  scenario.node[2].prot  busyTime  ETV
vector 54  scenario.node[2].prot  collisions  ETV
vector 74  scenario.node[3].prot  nodeId  ETV
vector 75  scenario.node[3].prot  busyTime  ETV
vector 76  scenario.node[3].prot  collisions  ETV
vector 96  scenario.node[4].prot  nodeId  ETV
vector 97  scenario.node[4].prot  busyTime  ETV
vector 98  scenario.node[4].prot  collisions  ETV
vector 118  scenario.node[5].prot  nodeId  ETV
vector 119  scenario.node[5].prot  busyTime  ETV
vector 120  scenario.node[5].prot  collisions  ETV
vector 140  scenario.node[6].prot  nodeId  ETV
vector 141  scenario.node[6].prot  busyTime  ETV
vector 142  scenario.node[6].prot  collisions  ETV
vector 162  scenario.node[7].prot  nodeId  ETV
vector 163  scenario.node[7].prot  busyTime  ETV
vector 164  scenario.node[7].prot  collisions  ETV
7	11253 8867 232 208251 1.11 38.41 374 -1.5 1.5 0.24589362777595 605.15780381565
6	20120 11760 232 208251 1.11 38.41 374 -1.4722746794938 1.4513430531448 6.5353005540512 403.18683516507
5	31880 7566 232 208251 1.11 38.41 374 36.55 36.55 13669.7 499627.535
4	39446 11268 232 208251 1.11 38.41 374 217.05297012302 1257.9500610021 276150.10048803 237760608.97279
3	50714 11263 232 208251 1.11 38.41 374 26.487975689908 29.742492528104 10436.986386571 291537.61863238
1	61977 6070 232 208251 1.11 38.41 374 0 0 0 0
0	68047 6444 232 208251 1.11 38.41 374 -1 -1 -374 374
2	74491 6070 232 208251 1.11 38.41 374 0 0 0 0
10	80561 529 5234 206012 2 38 37 0 0 0 0
9	81090 715 5234 206012 2 38 37 0.023625 0.02625 0.968625 0.025364390625
8	81805 492 5234 206012 2 38 37 0 0 0 0
29	82297 11420 233 208252 1.11 38.41 374 -1.502274055613 1.5017240997091 1.677979223064 600.07062780115
28	93717 12120 233 208252 1.11 38.41 374 -1.4793271052156 1.449106399544 7.1268425655937 401.98768657359
27	105837 7940 233 208252 1.11 38.41 374 36.55 36.55 13669.7 499627.535
26	113777 11642 233 208252 1.11 38.41 374 193.05297012329 1233.8726924937 267166.97306679 224708422.38675
25	125419 11623 233 208252 1.11 38.41 374 26.487713449239 29.744046425688 10436.233392439 291495.75433782
23	137042 12693 233 208252 1.11 38.41 374 -0.062041785116097 0.063182166983211 0.68764112614793 0.71802119048611
22	149735 11632 233 208252 1.11 38.41 374 19.9340670704 20.105558795296 7487.1123613636 149885.42954382
24	161367 6444 233 208252 1.11 38.41 374 1 1 374 374
36	167811 14879 964 207870 1.241824401662 38.341825106846 372 0.099999668296 0.100012765154 37.200000466403 3.7200000944405
35	182690 14879 964 207870 1.241824401662 38.341825106846 372 0.099999668296 0.100012765154 37.200000466403 3.7200000944405
34	197569 10084 964 207870 1.241824401662 38.341825106846 372 1 1 372 372
33	207653 10084 964 207870 1.241824401662 38.341825106846 372 1 1 372 372
32	217737 529 5235 206013 2 38 37 0 0 0 0
31	218266 752 5235 206013 2 38 37 0.023625 0.02625 0.968625 0.025364390625
30	219018 529 5235 206013 2 38 37 1 1 37 37
51	219547 11652 234 208253 1.11 38.41 374 -1.5157394589466 1.512601067965 1.2184836984639 605.02942601485
50	231199 12113 234 208253 1.11 38.41 374 -1.4731702656803 1.4434762626166 7.3297369412394 399.307346301
49	243312 7940 234 208253 1.11 38.41 374 36.55 36.55 13669.7 499627.535
48	251252 11632 234 208253 1.11 38.41 374 169.05297012329 1209.8459812974 258189.37500336 212097499.8708
47	262884 11647 234 208253 1.11 38.41 374 26.489539863965 29.737355875783 10435.973437092 291479.56885371
45	274531 12819 234 208253 1.11 38.41 374 -0.017729424752147 0.015851882042782 0.18868692218066 0.037079095963421
44	287350 11622 234 208253 1.11 38.41 374 19.972823073857 20.042588167158 7481.5928643179 149663.8357503
46	298972 6444 234 208253 1.11 38.41 374 2 2 748 1496
58	305416 14899 1176 208076 1.281934122161 38.381934753901 372 0.099999665786 0.100012761765 37.200000392959 3.7200000797521
57	320315 14880 970 207876 1.241824481718 38.341825186995 372 0.099999668291 0.100012765157 37.200000466496 3.7200000944591
56	335195 10096 1176 208076 1.281934122161 38.381934753901 372 2 2 744 1488
55	345291 10083 970 207876 1.241824481718 38.341825186995 372 2 2 744 1488
54	355374 529 5236 206014 2 38 37 0 0 0 0
53	355903 752 5236 206014 2 38 37 0.023625 0.02625 0.968625 0.025364390625
52	356655 529 5236 206014 2 38 37 2 2 74 148
73	357184 12069 235 208254 1.11 38.41 374 -1.497958486039 1.4963276184872 1.6879803176115 591.40448875207
72	369253 12129 235 208254 1.11 38.41 374 -1.4632764891516 1.4357843215667 7.4353118577992 393.50929609473
71	381382 7940 235 208254 1.11 38.41 374 36.55 36.55 13669.7 499627.535
70	389322 11630 235 208254 1.11 38.41 374 145.05297775269 1185.8395515662 249214.95540179 199923198.5783
69	400952 11649 235 208254 1.11 38.41 374 26.49843618829 29.729217243037 10435.912529095 291472.51328019
67	412601 12894 235 208254 1.11 38.41 374 -0.015485116000818 0.0115388110864 -0.012389372898706 0.017608601393658
66	425495 11631 235 208254 1.11 38.41 374 19.97046126762 20.035617369158 7478.4183834076 149536.82577096
68	437126 6444 235 208254 1.11 38.41 374 3 3 1122 3366
80	443570 14885 1040 207940 1.262751561773 38.362752267073 372 0.099999668288 0.100012763184 37.200000466519 3.7200000944651
79	458455 14881 976 207882 1.241824561773 38.341825267074 372 0.099999668288 0.100012765161 37.20000046652 3.7200000944639
78	473336 10080 1040 207940 1.262751561773 38.362752267073 372 3 3 1116 3348
77	483416 10083 976 207882 1.241824561773 38.341825267074 372 3 3 1116 3348
76	493499 529 5237 206015 2 38 37 0 0 0 0
75	494028 752 5237 206015 2 38 37 0.023625 0.02625 0.968625 0.025364390625
74	494780 529 5237 206015 2 38 37 3 3 111 333
117	495309 12213 237 208256 1.11 38.41 374 -1.497882336436 1.5 48.050914082507 534.12831684154
116	507522 12504 237 208256 1.11 38.41 374 -1.4541166680054 1.4825040590416 46.497089643968 369.38307957813
115	520026 8314 237 208256 1.11 38.41 374 36.55 36.55 13669.7 499627.535
114	528340 12011 237 208256 1.11 38.41 374 97.052977752686 1149.088226461 231482.24497382 177346044.89985
113	540351 12016 237 208256 1.11 38.41 374 26.502935501616 32.417369737051 10549.755855064 298121.42469104
111	552367 12923 237 208256 1.11 38.41 374 -0.20074258786882 2.2511942149828 86.214250314773 161.225692065
110	565290 11998 237 208256 1.11 38.41 374 19.69225841219 28.56627384593 7662.8137685838 157968.69569497
112	577288 6818 237 208256 1.11 38.41 374 5 5 1870 9350
124	584106 15268 1242 208154 1.287391362327 38.387391956952 372 0.099999664529 0.100012762958 37.200000355844 3.7200000723305
123	599374 15264 988 207894 1.241824721884 38.341825390554 372 0.099999667053 0.100012765218 37.200000429889 3.7200000871377
122	614638 10460 1242 208154 1.287391362327 38.387391956952 372 5 5 1860 9300
121	625098 10468 988 207894 1.241824721884 38.341825390554 372 5 5 1860 9300
120	635566 566 5239 206017 2 38 37 0 0 0 0
119	636132 789 5239 206017 2 38 37 0.023625 0.02625 0.968625 0.025364390625
118	636921 566 5239 206017 2 38 37 5 5 185 925
139	637487 12228 238 208257 1.11 38.41 374 -1.4890055531617 1.5 31.44628837946 535.82830061406
138	649715 12502 238 208257 1.11 38.41 374 -1.4486611853673 1.4729426185831 31.998116637402 368.0823513081
137	662217 8314 238 208257 1.11 38.41 374 36.55 36.55 13669.7 499627.535
136	670531 12005 238 208257 1.11 38.41 374 73.052977752686 1120.151942755 222403.89708505 166228855.12065
135	682536 12013 238 208257 1.11 38.41 374 26.511762276333 30.994390818756 10499.888253979 295139.3168615
133	694549 12988 238 208257 1.11 38.41 374 -0.11382036159063 1.431775583186 49.402630188361 54.57033533031
132	707537 12000 238 208257 1.11 38.41 374 19.823727394183 24.907599429332 7581.3505367571 153989.26968511
134	719537 6818 238 208257 1.11 38.41 374 6 6 2244 13464
146	726355 15277 1106 208006 1.266713801939 38.366714486584 372 0.099999667513 0.100012765371 37.200000445864 3.7200000903326
145	741632 15265 994 207900 1.241824801939 38.341825486742 372 0.099999667519 0.100012765205 37.200000446022 3.7200000903643
144	756897 10465 1106 208006 1.266713801939 38.366714486584 372 6 6 2232 13392
143	767362 10463 994 207900 1.241824801939 38.341825486742 372 6 6 2232 13392
142	777825 566 5240 206018 2 38 37 0 0 0 0
141	778391 789 5240 206018 2 38 37 0.023625 0.02625 0.968625 0.025364390625
140	779180 566 5240 206018 2 38 37 6 6 222 1332
161	779746 12211 239 208258 1.11 38.41 374 -1.4963545123757 1.5 20.447863726072 559.70775200574
160	791957 12518 239 208258 1.11 38.41 374 -1.4519455799455 1.4677886013601 22.595529266663 377.14426191645
159	804475 8314 239 208258 1.11 38.41 374 36.55 36.55 13669.7 499627.535
158	812789 12017 239 208258 1.11 38.41 374 49.052977752686 1093.3986229174 213375.17428158 155656993.69711
157	824806 12007 239 208258 1.11 38.41 374 26.50518382233 30.167613664661 10472.028466049 293521.0829802
155	836813 12992 239 208258 1.11 38.41 374 -0.086535986786021 0.92694337434358 27.53980676344 18.323490284321
154	849805 11987 239 208258 1.11 38.41 374 19.885789554861 22.734803447078 7532.1656077117 151782.5062059
156	861792 6818 239 208258 1.11 38.41 374 7 7 2618 18326
168	868610 15287 1308 208208 1.289468522438 38.389469142477 372 0.099999665302 0.100012761288 37.200000381258 3.720000077412
167	883897 15266 1000 207906 1.241824881995 38.341825575767 372 0.099999667817 0.100012765187 37.200000454991 3.7200000921581
166	899163 10477 1308 208208 1.289468522438 38.389469142477 372 7 7 2604 18228
165	909640 10467 1000 207906 1.241824881995 38.341825575767 372 7 7 2604 18228
164	920107 566 5241 206019 2 38 37 0 0 0 0
163	920673 789 5241 206019 2 38 37 0.023625 0.02625 0.968625 0.025364390625
162	921462 566 5241 206019 2 38 37 7 7 259 1813
88	922028 11639 236 208331 1.11 38.44 375 0 20.67634520876 7080.1735259046 138846.761769
89	933667 12623 236 208331 1.11 38.44 375 -6.1532465069028 0.41240880422602 -206.97712623089 948.81039257772
90	946290 6462 236 208331 1.11 38.44 375 4 4 1500 6000
91	952752 11685 236 208331 1.11 38.44 375 26.483279617226 34.687692641971 10671.349748343 304771.47061737
92	964437 11665 236 208331 1.11 38.44 375 121.05297775269 1182.7402533546 241825.53711978 190490521.43522
93	976102 7962 236 208331 1.11 38.44 375 36.55 36.55 13706.25 500963.4375
94	984064 12129 236 208331 1.11 38.44 375 -1.4604041392115 1.6958530819196 69.659601535847 394.38019801855
95	996193 11974 236 208331 1.11 38.44 375 -1.4916742932441 1.8056129456391 71.53899735202 541.35947003614
96	1008167 529 5238 206016 2 38 37 4 4 148 592
97	1008696 752 5238 206016 2 38 37 0.023625 0.02625 0.968625 0.025364390625
98	1009448 529 5238 206016 2 38 37 0 0 0 0
99	1009977 10087 982 207888 1.241824641829 38.3418252823 372 4 4 1488 5952
100	1020064 10461 904 207804 1.240527161496 38.34052780119 372 4 4 1488 5952
101	1030525 15257 982 207888 1.241824641829 38.3418252823 372 0.099999666309 0.100012765228 37.20000040169 3.7200000814979
102	1045782 15270 904 207804 1.240527161496 38.34052780119 372 0.099999666363 0.100012763147 37.200000400913 3.7200000813442
