version 2
run SinusoidalAccInjectionAttack-48-20171201-16:45:20-58639
attr CACCSpacing 20
attr attackAcc -30
attr attackPos 7
attr attackSpeed 150
attr attackStart 30
attr attacker 4
attr beaconInterval 0.1
attr configname SinusoidalAccInjectionAttack
attr controller 1
attr datetime 20171201-16:45:20
attr experiment SinusoidalAccInjectionAttack
attr fakeAcc "(4 == 4)"
attr fakePos "(4 == 2)"
attr fakeSpeed "(4 == 3)"
attr inifile omnetpp_48.ini
attr iterationvars "$attacker=4, $attackSpeed=150, $attackPos=7, $attackAcc=-30, $leaderSpeed=150, $controller=1, $CACCSpacing=20, $sController=\"CACC\", $attackStart=30, $0=20, $1=0, $nCars=8, $platoonSize=8, $nLanes=1, $beaconInterval=0.1, $priority=2, $packetSize=200, $ploegH=0.5, $leaderHeadway=1.2, $fakeSpeed=(4 == 3), $fakeAcc=(4 == 4), $fakePos=(4 == 2)"
attr iterationvarsf attacker=4,attackSpeed=150,attackPos=7,attackAcc=-30,leaderSpeed=150,controller=1,CACCSpacing=20,sController=CACC,attackStart=30,20,0,nCars=8,platoonSize=8,nLanes=1,beaconInterval=0.1,priority=2,packetSize=200,ploegH=0.5,leaderHeadway=1.2,fakeSpeed=(4_==_3),fakeAcc=(4_==_4),fakePos=(4_==_2)-
attr leaderHeadway 1.2
attr leaderSpeed 150
attr measurement "$attacker=4, $attackSpeed=150, $attackPos=7, $attackAcc=-30, $leaderSpeed=150, $controller=1, $CACCSpacing=20, $sController=\"CACC\", $attackStart=30, $0=20, $1=0, $nCars=8, $platoonSize=8, $nLanes=1, $beaconInterval=0.1, $priority=2, $packetSize=200, $ploegH=0.5, $leaderHeadway=1.2, $fakeSpeed=(4 == 3), $fakeAcc=(4 == 4), $fakePos=(4 == 2)"
attr nCars 8
attr nLanes 1
attr network scenario
attr packetSize 200
attr platoonSize 8
attr ploegH 0.5
attr priority 2
attr processid 58639
attr repetition 3
attr replication #3
attr resultdir results
attr runnumber 48
attr sController "\"CACC\""
attr seedset 3
param **.coreDebug false
param **.debug false
param **.headway 0.1s
param **.numberOfCars 8
param **.numberOfCarsPerPlatoon 8
param **.numberOfLanes 1
param **.numericController 1
param **.traffic.nCars 8
param **.traffic.nLanes 1
param **.traffic.platoonInsertDistance 20m
param **.traffic.platoonInsertHeadway 0s
param **.traffic.platoonInsertSpeed 150kmph
param **.traffic.platoonInsertTime "1 s"
param **.traffic.platoonLeaderHeadway 1.2s
param **.traffic.platoonSize 8
param **.traffic.platooningVType "\"vtypeauto\""
param **.traffic_type "\"PlatoonsTrafficManager\""
param *.**.nic.mac1609_4.bitrate 6Mbps
param *.**.nic.mac1609_4.txPower 100mW
param *.**.nic.mac1609_4.useServiceChannel false
param *.**.nic.phy80211p.analogueModels "xmldoc(\"config.xml\")"
param *.**.nic.phy80211p.decider "xmldoc(\"config.xml\")"
param *.**.nic.phy80211p.maxTXPower 100mW
param *.**.nic.phy80211p.sensitivity -94dBm
param *.**.nic.phy80211p.thermalNoise -95dBm
param *.**.nic.phy80211p.usePropagationDelay true
param *.**.nic.phy80211p.useThermalNoise true
param *.annotations.draw false
param *.connectionManager.alpha 2.0
param *.connectionManager.carrierFrequency "5.890e9 Hz"
param *.connectionManager.pMax 100mW
param *.connectionManager.sat -94dBm
param *.connectionManager.sendDirect true
param *.manager.autoShutdown true
param *.manager.commandLine "\"sumo --remote-port $port --seed $seed --configuration-file $configFile\""
param *.manager.configFile "\"./sumocfg/freeway.sumo.cfg\""
param *.manager.host "\"localhost\""
param *.manager.margin 25
param *.manager.moduleDisplayString "\"\""
param *.manager.moduleName "\"node\""
param *.manager.moduleType "\"Car\""
param *.manager.updateInterval 0.01s
param *.node[*].appl.attackStart 30s
param *.node[*].appl.attackerType 4
param *.node[*].appl.simulationDuration "60 s"
param *.node[*].appl_type "\"SimplePlatooningApp\""
param *.node[*].helper.nCars 8
param *.node[*].helper.nLanes 1
param *.node[*].helper.platoonSize 8
param *.node[*].helper_type "\"PositionHelper\""
param *.node[*].mobility.x 0
param *.node[*].mobility.y 0
param *.node[*].mobility.z 1.895
param *.node[*].prot.attackStart 30s
param *.node[*].prot.attackerType 4
param *.node[*].prot.attackingNode 3
param *.node[*].prot.beaconingInterval 0.1s
param *.node[*].prot.fakeAcc "(4 == 4)"
param *.node[*].prot.fakePos "(4 == 2)"
param *.node[*].prot.fakeSpeed "(4 == 3)"
param *.node[*].prot.maliciousAcc "-30 mpss"
param *.node[*].prot.maliciousSpeed 150kmph
param *.node[*].prot.packetSize 200
param *.node[*].prot.priority 2
param *.node[*].prot.shiftX "7 m"
param *.node[*].prot.useControllerAcceleration true
param *.node[*].protocol_type "\"SimplePlatooningBeaconing\""
param *.node[*].scenario.accHeadway 0.1s
param *.node[*].scenario.caccC1 0.5
param *.node[*].scenario.caccOmegaN "0.2 Hz"
param *.node[*].scenario.caccSpacing 20m
param *.node[*].scenario.caccXi 1
param *.node[*].scenario.controller "\"CACC\""
param *.node[*].scenario.engineTau "0.5 s"
param *.node[*].scenario.leaderHeadway 1.2s
param *.node[*].scenario.leaderSpeed 150kmph
param *.node[*].scenario.ploegH 0.5s
param *.node[*].scenario.ploegKd 0.7
param *.node[*].scenario.ploegKp 0.2
param *.node[*].scenario.useRealisticEngine false
param *.node[*].scenario_type "\"SinusoidalScenario\""
param *.node[*].unicast.packetLossRate 0
param *.obstacles.debug false
param *.playgroundSizeX 65000m
param *.playgroundSizeY 25000m
param *.playgroundSizeZ 50m
param *.world.use2D false
param *.world.useTorus false

vector 0  scenario.node[0].appl  distance  ETV
vector 1  scenario.node[0].appl  relativeSpeed  ETV
vector 2  scenario.node[0].appl  nodeId  ETV
vector 6  scenario.node[0].appl  acceleration  ETV
vector 7  scenario.node[0].appl  controllerAcceleration  ETV
vector 3  scenario.node[0].appl  speed  ETV
vector 4  scenario.node[0].appl  posx  ETV
vector 5  scenario.node[0].appl  posy  ETV
vector 22  scenario.node[1].appl  distance  ETV
vector 23  scenario.node[1].appl  relativeSpeed  ETV
vector 24  scenario.node[1].appl  nodeId  ETV
vector 28  scenario.node[1].appl  acceleration  ETV
vector 29  scenario.node[1].appl  controllerAcceleration  ETV
vector 25  scenario.node[1].appl  speed  ETV
vector 26  scenario.node[1].appl  posx  ETV
vector 27  scenario.node[1].appl  posy  ETV
vector 44  scenario.node[2].appl  distance  ETV
vector 45  scenario.node[2].appl  relativeSpeed  ETV
vector 46  scenario.node[2].appl  nodeId  ETV
vector 50  scenario.node[2].appl  acceleration  ETV
vector 51  scenario.node[2].appl  controllerAcceleration  ETV
vector 47  scenario.node[2].appl  speed  ETV
vector 48  scenario.node[2].appl  posx  ETV
vector 49  scenario.node[2].appl  posy  ETV
vector 66  scenario.node[3].appl  distance  ETV
vector 67  scenario.node[3].appl  relativeSpeed  ETV
vector 68  scenario.node[3].appl  nodeId  ETV
vector 72  scenario.node[3].appl  acceleration  ETV
vector 73  scenario.node[3].appl  controllerAcceleration  ETV
vector 69  scenario.node[3].appl  speed  ETV
vector 70  scenario.node[3].appl  posx  ETV
vector 71  scenario.node[3].appl  posy  ETV
vector 88  scenario.node[4].appl  distance  ETV
vector 89  scenario.node[4].appl  relativeSpeed  ETV
vector 90  scenario.node[4].appl  nodeId  ETV
vector 94  scenario.node[4].appl  acceleration  ETV
vector 95  scenario.node[4].appl  controllerAcceleration  ETV
vector 91  scenario.node[4].appl  speed  ETV
vector 92  scenario.node[4].appl  posx  ETV
vector 93  scenario.node[4].appl  posy  ETV
vector 110  scenario.node[5].appl  distance  ETV
vector 111  scenario.node[5].appl  relativeSpeed  ETV
vector 112  scenario.node[5].appl  nodeId  ETV
vector 116  scenario.node[5].appl  acceleration  ETV
vector 117  scenario.node[5].appl  controllerAcceleration  ETV
vector 113  scenario.node[5].appl  speed  ETV
vector 114  scenario.node[5].appl  posx  ETV
vector 115  scenario.node[5].appl  posy  ETV
vector 132  scenario.node[6].appl  distance  ETV
vector 133  scenario.node[6].appl  relativeSpeed  ETV
vector 134  scenario.node[6].appl  nodeId  ETV
vector 138  scenario.node[6].appl  acceleration  ETV
vector 139  scenario.node[6].appl  controllerAcceleration  ETV
vector 135  scenario.node[6].appl  speed  ETV
vector 136  scenario.node[6].appl  posx  ETV
vector 137  scenario.node[6].appl  posy  ETV
vector 154  scenario.node[7].appl  distance  ETV
vector 155  scenario.node[7].appl  relativeSpeed  ETV
vector 156  scenario.node[7].appl  nodeId  ETV
vector 160  scenario.node[7].appl  acceleration  ETV
vector 161  scenario.node[7].appl  controllerAcceleration  ETV
vector 157  scenario.node[7].appl  speed  ETV
vector 158  scenario.node[7].appl  posx  ETV
vector 159  scenario.node[7].appl  posy  ETV
vector 35  scenario.node[1].prot  leaderDelay  ETV
vector 33  scenario.node[1].prot  leaderDelayId  ETV
vector 36  scenario.node[1].prot  frontDelay  ETV
vector 34  scenario.node[1].prot  frontDelayId  ETV
vector 57  scenario.node[2].prot  leaderDelay  ETV
vector 55  scenario.node[2].prot  leaderDelayId  ETV
vector 79  scenario.node[3].prot  leaderDelay  ETV
vector 77  scenario.node[3].prot  leaderDelayId  ETV
vector 101  scenario.node[4].prot  leaderDelay  ETV
vector 99  scenario.node[4].prot  leaderDelayId  ETV
vector 123  scenario.node[5].prot  leaderDelay  ETV
vector 121  scenario.node[5].prot  leaderDelayId  ETV
vector 145  scenario.node[6].prot  leaderDelay  ETV
vector 143  scenario.node[6].prot  leaderDelayId  ETV
vector 167  scenario.node[7].prot  leaderDelay  ETV
vector 165  scenario.node[7].prot  leaderDelayId  ETV
vector 168  scenario.node[7].prot  frontDelay  ETV
vector 166  scenario.node[7].prot  frontDelayId  ETV
vector 58  scenario.node[2].prot  frontDelay  ETV
vector 56  scenario.node[2].prot  frontDelayId  ETV
vector 124  scenario.node[5].prot  frontDelay  ETV
vector 122  scenario.node[5].prot  frontDelayId  ETV
vector 80  scenario.node[3].prot  frontDelay  ETV
vector 78  scenario.node[3].prot  frontDelayId  ETV
vector 146  scenario.node[6].prot  frontDelay  ETV
vector 144  scenario.node[6].prot  frontDelayId  ETV
vector 102  scenario.node[4].prot  frontDelay  ETV
vector 100  scenario.node[4].prot  frontDelayId  ETV
vector 8  scenario.node[0].prot  nodeId  ETV
vector 9  scenario.node[0].prot  busyTime  ETV
vector 10  scenario.node[0].prot  collisions  ETV
vector 30  scenario.node[1].prot  nodeId  ETV
vector 31  scenario.node[1].prot  busyTime  ETV
vector 32  scenario.node[1].prot  collisions  ETV
vector 52  scenario.node[2].prot  nodeId  ETV
vector 53  scenario.node[2].prot  busyTime  ETV
vector 54  scenario.node[2].prot  collisions  ETV
vector 74  scenario.node[3].prot  nodeId  ETV
vector 75  scenario.node[3].prot  busyTime  ETV
vector 76  scenario.node[3].prot  collisions  ETV
vector 96  scenario.node[4].prot  nodeId  ETV
vector 97  scenario.node[4].prot  busyTime  ETV
vector 98  scenario.node[4].prot  collisions  ETV
vector 118  scenario.node[5].prot  nodeId  ETV
vector 119  scenario.node[5].prot  busyTime  ETV
vector 120  scenario.node[5].prot  collisions  ETV
vector 140  scenario.node[6].prot  nodeId  ETV
vector 141  scenario.node[6].prot  busyTime  ETV
vector 142  scenario.node[6].prot  collisions  ETV
vector 162  scenario.node[7].prot  nodeId  ETV
vector 163  scenario.node[7].prot  busyTime  ETV
vector 164  scenario.node[7].prot  collisions  ETV
7	232	1.11	-1.264609664986e-06
7	788	1.21	-1.2370558053476e-06
7	1344	1.31	-1.1922643139428e-06
7	1900	1.41	-1.1341353030048e-06
7	2456	1.51	-1.0661075364737e-06
7	3012	1.61	-9.9117950469463e-07
7	3568	1.71	-9.1193474816009e-07
7	4124	1.81	-8.3057002342457e-07
7	4680	1.91	-7.4892560064654e-07
7	5244	2.01	-6.6851609403784e-07
7	5800	2.11	-5.9056183232542e-07
7	6356	2.21	-5.1602003736662e-07
7	6912	2.31	-4.4561458878434e-07
7	7468	2.41	-3.7986517753552e-07
7	8024	2.51	-3.1911461206846e-07
7	8580	2.61	-2.6355444049386e-07
7	9136	2.71	-2.1324864718508e-07
7	9692	2.81	-1.6815555881067e-07
7	10248	2.91	-1.2814749794643e-07
7	10812	3.01	-9.3028553749264e-08
7	11368	3.11	-6.255026363533e-08
7	11924	3.21	-3.6425589655664e-08
7	12480	3.31	-1.4340962195547e-08
7	13036	3.41	4.0332679418498e-09
7	13592	3.51	1.9034231968362e-08
7	14148	3.61	3.0998883460143e-08
7	14704	3.71	4.0258086642098e-08
7	15260	3.81	4.7131671010447e-08
7	15816	3.91	5.1925063360159e-08
7	16380	4.01	5.4926061920924e-08
7	16936	4.11	5.6402775783226e-08
7	17492	4.21	5.6602530662531e-08
7	18048	4.31	5.5751151251116e-08
7	18604	4.41	5.4052726738973e-08
7	19160	4.51	5.1689909241759e-08
7	19716	4.61	4.8824482234977e-08
7	20272	4.71	4.5598198994412e-08
7	20828	4.81	4.2133798672239e-08
7	21384	4.91	3.8536192903393e-08
7	21949	5.01	3.4893794520485e-08
7	22506	5.11	0.34814790229188
7	23063	5.21	0.68726938086839
7	23620	5.31	1.0064706392337
7	24177	5.41	1.2963311769431
7	24734	5.51	1.5
7	25291	5.61	1.5
7	25848	5.71	1.5
7	26405	5.81	1.5
7	26962	5.91	1.5
7	27527	6.01	1.5
7	28084	6.11	1.5
7	28641	6.21	1.5
7	29198	6.31	1.5
7	29755	6.41	1.5
7	30312	6.51	1.4919234166485
7	30869	6.61	1.2264993309071
7	31426	6.71	0.9230538423432
7	31983	6.81	0.58908102202894
7	32540	6.91	0.23235621850268
7	33105	7.01	-0.13919559587845
7	33662	7.11	-0.51762846369643
7	34219	7.21	-0.89509993758214
7	34776	7.31	-1.2639902868434
7	35333	7.41	-1.5
7	35890	7.51	-1.5
7	36447	7.61	-1.5
7	37004	7.71	-1.5
7	37561	7.81	-1.5
7	38118	7.91	-1.5
7	38683	8.01	-1.5
7	39240	8.11	-1.5
7	39797	8.21	-1.5
7	40354	8.31	-1.5
7	40911	8.41	-1.5
7	41468	8.51	-1.5
7	42025	8.61	-1.5
7	42582	8.71	-1.5
7	43139	8.81	-1.5
7	43696	8.91	-1.5
7	44261	9.01	-1.5
7	44818	9.11	-1.5
7	45375	9.21	-1.5
7	45932	9.31	-1.5
7	46489	9.41	-1.5
7	47046	9.51	-1.1784535903605
7	47603	9.61	-0.73985166412807
7	48160	9.71	-0.29046662052636
7	48717	9.81	0.1586820567595
7	49274	9.91	0.59737147696769
7	49839	10.01	1.0162504342412
7	50396	10.11	1.4069035499393
7	50953	10.21	1.5
7	51510	10.31	1.5
7	52067	10.41	1.5
7	52624	10.51	1.5
7	53181	10.61	1.5
7	53738	10.71	1.5
7	54295	10.81	1.5
7	54852	10.91	1.5
7	55417	11.01	1.5
7	55974	11.11	1.5
7	56531	11.21	1.5
7	57088	11.31	1.5
7	57645	11.41	1.5
7	58202	11.51	1.5
7	58759	11.61	1.5
7	59316	11.71	1.5
7	59873	11.81	1.5
7	60430	11.91	1.1420569523654
7	60995	12.01	0.73271074176932
7	61552	12.11	0.30763491705864
7	62109	12.21	-0.12290183397916
7	62666	12.31	-0.54917422862574
7	63223	12.41	-0.96209331714029
7	63780	12.51	-1.3532900275071
7	64337	12.61	-1.5
7	64894	12.71	-1.5
7	65451	12.81	-1.5
7	66008	12.91	-1.5
7	66573	13.01	-1.5
7	67130	13.11	-1.5
7	67687	13.21	-1.5
7	68244	13.31	-1.5
7	68801	13.41	-1.5
7	69358	13.51	-1.5
7	69915	13.61	-1.5
7	70472	13.71	-1.5
7	71029	13.81	-1.5
7	71586	13.91	-1.5
7	72151	14.01	-1.5
7	72708	14.11	-1.5
7	73265	14.21	-1.5
7	73822	14.31	-1.5
7	74379	14.41	-1.3008305793046
7	74936	14.51	-0.88835736019924
7	75493	14.61	-0.45792464373664
7	76050	14.71	-0.020297800469415
7	76607	14.81	0.41435934758473
7	77164	14.91	0.83657487485725
7	77729	15.01	1.2376491839042
7	78286	15.11	1.5
7	78843	15.21	1.5
7	79400	15.31	1.5
7	79957	15.41	1.5
7	80514	15.51	1.5
7	81071	15.61	1.5
7	81628	15.71	1.5
7	82185	15.81	1.5
7	82742	15.91	1.5
7	83307	16.01	1.5
7	83864	16.11	1.5
7	84421	16.21	1.5
7	84978	16.31	1.5
7	85535	16.41	1.5
7	86092	16.51	1.5
7	86649	16.61	1.5
7	87206	16.71	1.5
7	87763	16.81	1.5
7	88320	16.91	1.2451238477419
7	88885	17.01	0.83347870135727
7	89442	17.11	0.40470958877236
7	89999	17.21	-0.030598062215738
7	90556	17.31	-0.46243980386358
7	91113	17.41	-0.88148335304344
7	91670	17.51	-1.2791500631696
7	92227	17.61	-1.5
7	92784	17.71	-1.5
7	93341	17.81	-1.5
7	93898	17.91	-1.5
7	94463	18.01	-1.5
7	95020	18.11	-1.5
7	95577	18.21	-1.5
7	96134	18.31	-1.5
7	96691	18.41	-1.5
7	97248	18.51	-1.5
7	97805	18.61	-1.5
7	98362	18.71	-1.5
7	98919	18.81	-1.5
7	99476	18.91	-1.5
7	100041	19.01	-1.5
7	100598	19.11	-1.5
7	101155	19.21	-1.5
7	101712	19.31	-1.5
7	102269	19.41	-1.2657245815119
7	102826	19.51	-0.85377693481423
7	103383	19.61	-0.42439560038014
7	103940	19.71	0.011767371268903
7	104497	19.81	0.44464851836469
7	105054	19.91	0.86486384400589
7	105619	20.01	1.2637899041132
7	106176	20.11	1.5
7	106733	20.21	1.5
7	107290	20.31	1.5
7	107847	20.41	1.5
7	108404	20.51	1.5
7	108961	20.61	1.5
7	109518	20.71	1.5
7	110075	20.81	1.5
7	110632	20.91	1.5
7	111197	21.01	1.5
7	111754	21.11	1.5
7	112311	21.21	1.5
7	112868	21.31	1.5
7	113425	21.41	1.5
7	113982	21.51	1.5
7	114539	21.61	1.5
7	115096	21.71	1.5
7	115653	21.81	1.5
7	116210	21.91	1.2580915517757
7	116775	22.01	0.84625491634767
7	117332	22.11	0.41709956367446
7	117889	22.21	-0.01874716354331
7	118446	22.31	-0.45124369149482
7	119003	22.41	-0.87102520538662
7	119560	22.51	-1.2694848794604
7	120117	22.61	-1.5
7	120674	22.71	-1.5
7	121231	22.81	-1.5
7	121788	22.91	-1.5
7	122353	23.01	-1.5
7	122910	23.11	-1.5
7	123467	23.21	-1.5
7	124024	23.31	-1.5
7	124581	23.41	-1.5
7	125138	23.51	-1.5
7	125695	23.61	-1.5
7	126252	23.71	-1.5
7	126809	23.81	-1.5
7	127366	23.91	-1.5
7	127931	24.01	-1.5
7	128488	24.11	-1.5
7	129045	24.21	-1.5
7	129602	24.31	-1.5
7	130159	24.41	-1.2609239651136
7	130716	24.51	-0.84904615684721
7	131273	24.61	-0.41980696481297
7	131830	24.71	0.0161570994443
7	132387	24.81	0.44879633965842
7	132944	24.91	0.86873882266714
7	133509	25.01	1.267371555718
7	134066	25.11	1.5
7	134623	25.21	1.5
7	135180	25.31	1.5
7	135737	25.41	1.5
7	136294	25.51	1.5
7	136851	25.61	1.5
7	137408	25.71	1.5
7	137965	25.81	1.5
7	138522	25.91	1.5
7	139087	26.01	1.5
7	139644	26.11	1.5
7	140201	26.21	1.5
7	140758	26.31	1.5
7	141315	26.41	1.5
7	141872	26.51	1.5
7	142429	26.61	1.5
7	142986	26.71	1.5
7	143543	26.81	1.5
7	144100	26.91	1.259872851865
7	144665	27.01	0.84801032251606
7	145222	27.11	0.41880224309333
7	145779	27.21	-0.017118277439927
7	146336	27.31	-0.449704557082
7	146893	27.41	-0.86958730431672
7	147450	27.51	-1.2681558149805
7	148007	27.61	-1.5
7	148564	27.71	-1.5
7	149121	27.81	-1.5
7	149678	27.91	-1.5
7	150243	28.01	-1.5
7	150800	28.11	-1.5
7	151357	28.21	-1.5
7	151914	28.31	-1.5
7	152471	28.41	-1.5
7	153028	28.51	-1.5
7	153585	28.61	-1.5
7	154142	28.71	-1.5
7	154699	28.81	-1.5
7	155256	28.91	-1.5
7	155821	29.01	-1.5
7	156378	29.11	-1.5
7	156935	29.21	-1.5
7	157492	29.31	-1.5
7	158049	29.41	-1.2602629232498
7	158606	29.51	-0.84839472385467
7	159163	29.61	-0.41917509845132
7	159720	29.71	0.016761581288272
7	160277	29.81	0.44936751475921
7	160834	29.91	0.8692724301223
7	161399	30.01	1.2678647739114
7	161956	30.11	1.5
7	162513	30.21	1.5
7	163070	30.31	1.5
7	163627	30.41	1.5
7	164184	30.51	1.5
7	164741	30.61	1.5
7	165298	30.71	1.5
7	165855	30.81	1.5
7	166412	30.91	1.5
7	166977	31.01	1.5
7	167534	31.11	1.5
7	168091	31.21	1.5
7	168648	31.31	1.5
7	169205	31.41	1.5
7	169762	31.51	1.5
7	170319	31.61	1.5
7	170876	31.71	1.5
7	171433	31.81	1.5
7	171990	31.91	1.2601181665227
7	172555	32.01	0.84825207129943
7	173112	32.11	0.41903673064581
7	173669	32.21	-0.016893952361286
7	174226	32.31	-0.44949259223436
7	174783	32.41	-0.86938928093497
7	175340	32.51	-1.2679727801759
7	175897	32.61	-1.5
7	176454	32.71	-1.5
7	177011	32.81	-1.5
7	177568	32.91	-1.5
7	178133	33.01	-1.5
7	178690	33.11	-1.5
7	179247	33.21	-1.5
7	179804	33.31	-1.5
6	232	1.11	-1.8587371641843e-07
6	788	1.21	-3.7715039979958e-07
6	1344	1.31	-5.2730015909219e-07
6	1900	1.41	-6.4101826069418e-07
6	2456	1.51	-7.2280812446479e-07
6	3012	1.61	-7.7694011224594e-07
6	3568	1.71	-8.0741315855448e-07
6	4124	1.81	-8.1792990158647e-07
6	4680	1.91	-8.1188602507609e-07
6	5244	2.01	-7.9236670558203e-07
6	5800	2.11	-7.6214163868826e-07
6	6356	2.21	-7.2367640768789e-07
6	6912	2.31	-6.7914172063865e-07
6	7468	2.41	-6.3042691067494e-07
6	8024	2.51	-5.791562784907e-07
6	8580	2.61	-5.2670969807878e-07
6	9136	2.71	-4.7423895921384e-07
6	9692	2.81	-4.226883731917e-07
6	10248	2.91	-3.7281679965417e-07
6	10812	3.01	-3.2521825232834e-07
6	11368	3.11	-2.8033753096679e-07
6	11924	3.21	-2.3849224817241e-07
6	12480	3.31	-1.9988561916762e-07
6	13036	3.41	-1.6463133079014e-07
6	13592	3.51	-1.3275709420668e-07
6	14148	3.61	-1.0422880336591e-07
6	14704	3.71	-7.8954798254927e-08
6	15260	3.81	-5.6805049553077e-08
6	15816	3.91	-3.7617553516611e-08
6	16380	4.01	-2.1201884692346e-08
6	16936	4.11	-7.354117315117e-09
6	17492	4.21	4.1374903503311e-09
6	18048	4.31	1.3491074923877e-08
6	18604	4.41	2.0921930854456e-08
6	19160	4.51	2.6641799877325e-08
6	19716	4.61	3.0856028843118e-08
6	20272	4.71	3.3759306461434e-08
6	20828	4.81	3.5534952758098e-08
6	21384	4.91	3.6354919075166e-08
6	21949	5.01	3.6375524814503e-08
6	22506	5.11	0.0068264645847194
6	23063	5.21	0.074594848256737
6	23620	5.31	0.19005135781356
6	24177	5.41	0.34050273679327
6	24734	5.51	0.51301639903159
6	25291	5.61	0.69025459358016
6	25848	5.71	0.8357267325124
6	26405	5.81	0.95506455436478
6	26962	5.91	1.0529631336311
6	27527	6.01	1.1332740666944
6	28084	6.11	1.1991570040927
6	28641	6.21	1.2532039597787
6	29198	6.31	1.2975412879882
6	29755	6.41	1.3339133398063
6	30312	6.51	1.3635927262982
6	30869	6.61	1.370205363024
6	31426	6.71	1.3272611941339
6	31983	6.81	1.237381093641
6	32540	6.91	1.1040433769786
6	33105	7.01	0.9314709214955
6	33662	7.11	0.72451590696545
6	34219	7.21	0.48854318469935
6	34776	7.31	0.22931329740459
6	35333	7.41	-0.044839397355645
6	35890	7.51	-0.30626147357466
6	36447	7.61	-0.52071862935179
6	37004	7.71	-0.69664819248914
6	37561	7.81	-0.84097171050672
6	38118	7.91	-0.95936726314534
6	38683	8.01	-1.0564928534642
6	39240	8.11	-1.1361696663563
6	39797	8.21	-1.2015324043531
6	40354	8.31	-1.255152615343
6	40911	8.41	-1.299139864269
6	41468	8.51	-1.3352247291408
6	42025	8.61	-1.3648268866902
6	42582	8.71	-1.3891109663092
6	43139	8.81	-1.4090323697367
6	43696	8.91	-1.4253748591699
6	44261	9.01	-1.4387813925914
6	44818	9.11	-1.4497794194909
6	45375	9.21	-1.4588016321618
6	45932	9.31	-1.466202988987
6	46489	9.41	-1.4722746794739
6	47046	9.51	-1.469624914661
6	47603	9.61	-1.3967850638842
6	48160	9.71	-1.2587757640922
6	48717	9.81	-1.0660952217464
6	49274	9.91	-0.82923335013376
6	49839	10.01	-0.55852907828324
6	50396	10.11	-0.26404116063858
6	50953	10.21	0.039432698787323
6	51510	10.31	0.30182609759564
6	52067	10.41	0.51708007620732
6	52624	10.51	0.69366331160268
6	53181	10.61	0.83852306854624
6	53738	10.71	0.95735852387477
6	54295	10.81	1.0548449876183
6	54852	10.91	1.1348178424115
6	55417	11.01	1.2004234378772
6	55974	11.11	1.2542428765791
6	56531	11.21	1.2983935616198
6	57088	11.31	1.3346125010308
6	57645	11.41	1.3643246463992
6	58202	11.51	1.3886989543394
6	58759	11.61	1.4086943764177
6	59316	11.71	1.425097586926
6	59873	11.81	1.4385539327783
6	60430	11.91	1.434562737289
6	60995	12.01	1.3623449188863
6	61552	12.11	1.229987565462
6	62109	12.21	1.0461448397947
6	62666	12.31	0.81967864250814
6	63223	12.41	0.55952045906622
6	63780	12.51	0.27454262951352
6	64337	12.61	-0.022341644856283
6	64894	12.71	-0.28780548056062
6	65451	12.81	-0.50557828686024
6	66008	12.91	-0.68422783826705
6	66573	13.01	-0.83078269403671
6	67130	13.11	-0.95100872080636
6	67687	13.21	-1.049635937467
6	68244	13.31	-1.1305446069755
6	68801	13.41	-1.1969178964527
6	69358	13.51	-1.2513671116331
6	69915	13.61	-1.2960344327361
6	70472	13.71	-1.3326771936626
6	71029	13.81	-1.3627370202911
6	71586	13.91	-1.3873965479604
6	72151	14.01	-1.4076259495589
6	72708	14.11	-1.4242211047687
6	73265	14.21	-1.4378349121301
6	73822	14.31	-1.4490029758548
6	74379	14.41	-1.4542593951845
6	74936	14.51	-1.4067454390002
6	75493	14.61	-1.2938574955257
6	76050	14.71	-1.1248409052179
6	76607	14.81	-0.90912582141769
6	77164	14.91	-0.65618298375156
6	77729	15.01	-0.37539052552589
6	78286	15.11	-0.078063005077667
6	78843	15.21	0.20543869668828
6	79400	15.31	0.43800883574505
6	79957	15.41	0.62879735392087
6	80514	15.51	0.78531039044307
6	81071	15.61	0.91370559386164
6	81628	15.71	1.0190343806975
6	82185	15.81	1.1054406719069
6	82742	15.91	1.1763239259999
6	83307	16.01	1.2344728829831
6	83864	16.11	1.2821752809849
6	84421	16.21	1.3213078620858
6	84978	16.31	1.353410208462
6	85535	16.41	1.3797453137336
6	86092	16.51	1.4013492725695
6	86649	16.61	1.4190720434712
6	87206	16.71	1.4336108884486
6	87763	16.81	1.4455378052077
6	88320	16.91	1.4502949065331
6	88885	17.01	1.3935559567543
6	89442	17.11	1.2733368701461
6	89999	17.21	1.0986742440551
6	90556	17.31	0.8787967659174
6	91113	17.41	0.6229832927616
6	91670	17.51	0.34043137853601
6	92227	17.61	0.043031849082098
6	92784	17.71	-0.23417644595227
6	93341	17.81	-0.46158379949475
6	93898	17.91	-0.64813703535265
6	94463	18.01	-0.80117566522517
6	95020	18.11	-0.92672064505592
6	95577	18.21	-1.0297112558185
6	96134	18.31	-1.114199428261
6	96691	18.41	-1.1835091568827
6	97248	18.51	-1.2403672749222
6	97805	18.61	-1.2870107353905
6	98362	18.71	-1.3252746188861
6	98919	18.81	-1.3566643306582
6	99476	18.91	-1.3824148273436
6	100041	19.01	-1.4035392035204
6	100598	19.11	-1.420868549603
6	101155	19.21	-1.4350846492
6	101712	19.31	-1.4467468023348
6	102269	19.41	-1.4517201941764
6	102826	19.51	-1.3984004323881
6	103383	19.61	-1.2808993810083
6	103940	19.71	-1.1083308503771
6	104497	19.81	-0.88999806036725
6	105054	19.91	-0.63525086466711
6	105619	20.01	-0.35335363991251
6	106176	20.11	-0.055983891306255
6	106733	20.21	0.22355126013451
6	107290	20.31	0.45286744637352
6	107847	20.41	0.64098658988883
6	108404	20.51	0.7953098094454
6	108961	20.61	0.92190860023962
6	109518	20.71	1.025763703035
6	110075	20.81	1.110961060045
6	110632	20.91	1.1808525670219
6	111197	21.01	1.2381879459468
6	111754	21.11	1.2852229265718
6	112311	21.21	1.3238079929607
6	112868	21.31	1.3554611865736
6	113425	21.41	1.3814278301389
6	113982	21.51	1.4027295220423
6	114539	21.61	1.4202043287803
6	115096	21.71	1.4345397567773
6	115653	21.81	1.4462998007623
6	116210	21.91	1.4512038299465
6	116775	22.01	1.3966149622043
6	117332	22.11	1.2781048258539
6	117889	22.21	1.104758616826
6	118446	22.31	0.88585193074024
6	119003	22.41	0.63070830476164
6	119560	22.51	0.34856734381066
6	120117	22.61	0.0511856543703
6	120674	22.71	-0.2274874856468
6	121231	22.81	-0.45609652228009
6	121788	22.91	-0.64363555681837
6	122353	23.01	-0.79748288496049
6	122910	23.11	-0.9236912790449
6	123467	23.21	-1.0272261205607
6	124024	23.31	-1.1121607517772
6	124581	23.41	-1.1818367320956
6	125138	23.51	-1.2389953040916
6	125695	23.61	-1.2858852414524
6	126252	23.71	-1.3243513218463
6	126809	23.81	-1.355906905502
6	127366	23.91	-1.3817934749042
6	127931	24.01	-1.403029478103
6	128488	24.11	-1.4204503972238
6	129045	24.21	-1.4347416186069
6	129602	24.31	-1.4464653977718
6	130159	24.41	-1.4513952146871
6	130716	24.51	-1.397277320676
6	131273	24.61	-1.2791416668563
6	131830	24.71	-1.1060840673032
6	132387	24.81	-0.88739036841687
6	132944	24.91	-0.63239387292811
6	133509	25.01	-0.35034337811126
6	134066	25.11	-0.052966136912147
6	134623	25.21	0.22602686982154
6	135180	25.31	0.45489830857193
6	135737	25.41	0.64265260423966
6	136294	25.51	0.7966765214853
6	136851	25.61	0.92302978013734
6	137408	25.71	1.0266834610576
6	137965	25.81	1.1117155819754
6	138522	25.91	1.1814715378058
6	139087	26.01	1.2386957175771
6	139644	26.11	1.2856394761641
6	140201	26.21	1.3241497087101
6	140758	26.31	1.3557415125085
6	141315	26.41	1.3816577950429
6	141872	26.51	1.4029181733591
6	142429	26.61	1.4203590885664
6	142986	26.71	1.4346667137048
6	143543	26.81	1.4464039496623
6	144100	26.91	1.4513241957715
6	144665	27.01	1.3970315218245
6	145222	27.11	1.2787568961947
6	145779	27.21	1.1055921925461
6	146336	27.31	0.8868194531928
6	146893	27.41	0.63176835684402
6	147450	27.51	0.34968428947408
6	148007	27.61	0.052305397196051
6	148564	27.71	-0.22656890652399
6	149121	27.81	-0.45534296745871
6	149678	27.91	-0.64301737940156
6	150243	28.01	-0.79697576417033
6	150800	28.11	-0.92327526336575
6	151357	28.21	-1.0268848428062
6	151914	28.31	-1.1118807851517
6	152471	28.41	-1.1816070619503
6	153028	28.51	-1.2388068945782
6	153585	28.61	-1.2857306800278
6	154142	28.71	-1.3242245276466
6	154699	28.81	-1.3558028900952
6	155256	28.91	-1.3817081460417
6	155821	29.01	-1.4029594787168
6	156378	29.11	-1.4203929733462
6	156935	29.21	-1.4346945110262
6	157492	29.31	-1.446426753148
6	158049	29.41	-1.4513505510308
6	158606	29.51	-1.3971227384744
6	159163	29.61	-1.2788996857282
6	159720	29.71	-1.1057747287524
6	160277	29.81	-0.88703132157306
6	160834	29.91	-0.63200048778214
6	161399	30.01	-0.34992887929945
6	161956	30.11	-0.052550599747292
6	162513	30.21	0.22636775502605
6	163070	30.31	0.45517795316883
6	163627	30.41	0.64288201020943
6	164184	30.51	0.79686471428317
6	164741	30.61	0.92318416377992
6	165298	30.71	1.0268101094155
6	165855	30.81	1.1118194777403
6	166412	30.91	1.181556768519
6	166977	31.01	1.2387656364474
6	167534	31.11	1.2856968339904
6	168091	31.21	1.3241967621056
6	168648	31.31	1.3557801126808
6	169205	31.41	1.3816894606293
6	169762	31.51	1.4029441501705
6	170319	31.61	1.4203803985993
6	170876	31.71	1.434684195354
6	171433	31.81	1.4464182907048
6	171990	31.91	1.4513407705138
6	172555	32.01	1.3970888876891
6	173112	32.11	1.2788466960821
6	173669	32.21	1.1057069889901
6	174226	32.31	0.88695269654835
6	174783	32.41	0.63191434325702
6	175340	32.51	0.3498381112415
6	175897	32.61	0.052459604304289
6	176454	32.71	-0.22644240298533
6	177011	32.81	-0.45523919049515
6	177568	32.91	-0.64293224614715
6	178133	33.01	-0.79690592524955
6	178690	33.11	-0.92321797112547
6	179247	33.21	-1.0268378432137
6	179804	33.31	-1.1118422291148
5	232	1.11	36.55
5	788	1.21	36.55
5	1344	1.31	36.55
5	1900	1.41	36.55
5	2456	1.51	36.55
5	3012	1.61	36.55
5	3568	1.71	36.55
5	4124	1.81	36.55
5	4680	1.91	36.55
5	5244	2.01	36.55
5	5800	2.11	36.55
5	6356	2.21	36.55
5	6912	2.31	36.55
5	7468	2.41	36.55
5	8024	2.51	36.55
5	8580	2.61	36.55
5	9136	2.71	36.55
5	9692	2.81	36.55
5	10248	2.91	36.55
5	10812	3.01	36.55
5	11368	3.11	36.55
5	11924	3.21	36.55
5	12480	3.31	36.55
5	13036	3.41	36.55
5	13592	3.51	36.55
5	14148	3.61	36.55
5	14704	3.71	36.55
5	15260	3.81	36.55
5	15816	3.91	36.55
5	16380	4.01	36.55
5	16936	4.11	36.55
5	17492	4.21	36.55
5	18048	4.31	36.55
5	18604	4.41	36.55
5	19160	4.51	36.55
5	19716	4.61	36.55
5	20272	4.71	36.55
5	20828	4.81	36.55
5	21384	4.91	36.55
5	21949	5.01	36.55
5	22506	5.11	36.55
5	23063	5.21	36.55
5	23620	5.31	36.55
5	24177	5.41	36.55
5	24734	5.51	36.55
5	25291	5.61	36.55
5	25848	5.71	36.55
5	26405	5.81	36.55
5	26962	5.91	36.55
5	27527	6.01	36.55
5	28084	6.11	36.55
5	28641	6.21	36.55
5	29198	6.31	36.55
5	29755	6.41	36.55
5	30312	6.51	36.55
5	30869	6.61	36.55
5	31426	6.71	36.55
5	31983	6.81	36.55
5	32540	6.91	36.55
5	33105	7.01	36.55
5	33662	7.11	36.55
5	34219	7.21	36.55
5	34776	7.31	36.55
5	35333	7.41	36.55
5	35890	7.51	36.55
5	36447	7.61	36.55
5	37004	7.71	36.55
5	37561	7.81	36.55
5	38118	7.91	36.55
5	38683	8.01	36.55
5	39240	8.11	36.55
5	39797	8.21	36.55
5	40354	8.31	36.55
5	40911	8.41	36.55
5	41468	8.51	36.55
5	42025	8.61	36.55
5	42582	8.71	36.55
5	43139	8.81	36.55
5	43696	8.91	36.55
5	44261	9.01	36.55
5	44818	9.11	36.55
5	45375	9.21	36.55
5	45932	9.31	36.55
5	46489	9.41	36.55
5	47046	9.51	36.55
5	47603	9.61	36.55
5	48160	9.71	36.55
5	48717	9.81	36.55
5	49274	9.91	36.55
5	49839	10.01	36.55
5	50396	10.11	36.55
5	50953	10.21	36.55
5	51510	10.31	36.55
5	52067	10.41	36.55
5	52624	10.51	36.55
5	53181	10.61	36.55
5	53738	10.71	36.55
5	54295	10.81	36.55
5	54852	10.91	36.55
5	55417	11.01	36.55
5	55974	11.11	36.55
5	56531	11.21	36.55
5	57088	11.31	36.55
5	57645	11.41	36.55
5	58202	11.51	36.55
5	58759	11.61	36.55
5	59316	11.71	36.55
5	59873	11.81	36.55
5	60430	11.91	36.55
5	60995	12.01	36.55
5	61552	12.11	36.55
5	62109	12.21	36.55
5	62666	12.31	36.55
5	63223	12.41	36.55
5	63780	12.51	36.55
5	64337	12.61	36.55
5	64894	12.71	36.55
5	65451	12.81	36.55
5	66008	12.91	36.55
5	66573	13.01	36.55
5	67130	13.11	36.55
5	67687	13.21	36.55
5	68244	13.31	36.55
5	68801	13.41	36.55
5	69358	13.51	36.55
5	69915	13.61	36.55
5	70472	13.71	36.55
5	71029	13.81	36.55
5	71586	13.91	36.55
5	72151	14.01	36.55
5	72708	14.11	36.55
5	73265	14.21	36.55
5	73822	14.31	36.55
5	74379	14.41	36.55
5	74936	14.51	36.55
5	75493	14.61	36.55
5	76050	14.71	36.55
5	76607	14.81	36.55
5	77164	14.91	36.55
5	77729	15.01	36.55
5	78286	15.11	36.55
5	78843	15.21	36.55
5	79400	15.31	36.55
5	79957	15.41	36.55
5	80514	15.51	36.55
5	81071	15.61	36.55
5	81628	15.71	36.55
5	82185	15.81	36.55
5	82742	15.91	36.55
5	83307	16.01	36.55
5	83864	16.11	36.55
5	84421	16.21	36.55
5	84978	16.31	36.55
5	85535	16.41	36.55
5	86092	16.51	36.55
5	86649	16.61	36.55
5	87206	16.71	36.55
5	87763	16.81	36.55
5	88320	16.91	36.55
5	88885	17.01	36.55
5	89442	17.11	36.55
5	89999	17.21	36.55
5	90556	17.31	36.55
5	91113	17.41	36.55
5	91670	17.51	36.55
5	92227	17.61	36.55
5	92784	17.71	36.55
5	93341	17.81	36.55
5	93898	17.91	36.55
5	94463	18.01	36.55
5	95020	18.11	36.55
5	95577	18.21	36.55
5	96134	18.31	36.55
5	96691	18.41	36.55
5	97248	18.51	36.55
5	97805	18.61	36.55
5	98362	18.71	36.55
5	98919	18.81	36.55
5	99476	18.91	36.55
5	100041	19.01	36.55
5	100598	19.11	36.55
5	101155	19.21	36.55
5	101712	19.31	36.55
5	102269	19.41	36.55
5	102826	19.51	36.55
5	103383	19.61	36.55
5	103940	19.71	36.55
5	104497	19.81	36.55
5	105054	19.91	36.55
5	105619	20.01	36.55
5	106176	20.11	36.55
5	106733	20.21	36.55
5	107290	20.31	36.55
5	107847	20.41	36.55
5	108404	20.51	36.55
5	108961	20.61	36.55
5	109518	20.71	36.55
5	110075	20.81	36.55
5	110632	20.91	36.55
5	111197	21.01	36.55
5	111754	21.11	36.55
5	112311	21.21	36.55
5	112868	21.31	36.55
5	113425	21.41	36.55
5	113982	21.51	36.55
5	114539	21.61	36.55
5	115096	21.71	36.55
5	115653	21.81	36.55
5	116210	21.91	36.55
5	116775	22.01	36.55
5	117332	22.11	36.55
5	117889	22.21	36.55
5	118446	22.31	36.55
5	119003	22.41	36.55
5	119560	22.51	36.55
5	120117	22.61	36.55
5	120674	22.71	36.55
5	121231	22.81	36.55
5	121788	22.91	36.55
5	122353	23.01	36.55
5	122910	23.11	36.55
5	123467	23.21	36.55
5	124024	23.31	36.55
5	124581	23.41	36.55
5	125138	23.51	36.55
5	125695	23.61	36.55
5	126252	23.71	36.55
5	126809	23.81	36.55
5	127366	23.91	36.55
5	127931	24.01	36.55
5	128488	24.11	36.55
5	129045	24.21	36.55
5	129602	24.31	36.55
5	130159	24.41	36.55
5	130716	24.51	36.55
5	131273	24.61	36.55
5	131830	24.71	36.55
5	132387	24.81	36.55
5	132944	24.91	36.55
5	133509	25.01	36.55
5	134066	25.11	36.55
5	134623	25.21	36.55
5	135180	25.31	36.55
5	135737	25.41	36.55
5	136294	25.51	36.55
5	136851	25.61	36.55
5	137408	25.71	36.55
5	137965	25.81	36.55
5	138522	25.91	36.55
5	139087	26.01	36.55
5	139644	26.11	36.55
5	140201	26.21	36.55
5	140758	26.31	36.55
5	141315	26.41	36.55
5	141872	26.51	36.55
5	142429	26.61	36.55
5	142986	26.71	36.55
5	143543	26.81	36.55
5	144100	26.91	36.55
5	144665	27.01	36.55
5	145222	27.11	36.55
5	145779	27.21	36.55
5	146336	27.31	36.55
5	146893	27.41	36.55
5	147450	27.51	36.55
5	148007	27.61	36.55
5	148564	27.71	36.55
5	149121	27.81	36.55
5	149678	27.91	36.55
5	150243	28.01	36.55
5	150800	28.11	36.55
5	151357	28.21	36.55
5	151914	28.31	36.55
5	152471	28.41	36.55
5	153028	28.51	36.55
5	153585	28.61	36.55
5	154142	28.71	36.55
5	154699	28.81	36.55
5	155256	28.91	36.55
5	155821	29.01	36.55
5	156378	29.11	36.55
5	156935	29.21	36.55
5	157492	29.31	36.55
5	158049	29.41	36.55
5	158606	29.51	36.55
5	159163	29.61	36.55
5	159720	29.71	36.55
5	160277	29.81	36.55
5	160834	29.91	36.55
5	161399	30.01	36.55
5	161956	30.11	36.55
5	162513	30.21	36.55
5	163070	30.31	36.55
5	163627	30.41	36.55
5	164184	30.51	36.55
5	164741	30.61	36.55
5	165298	30.71	36.55
5	165855	30.81	36.55
5	166412	30.91	36.55
5	166977	31.01	36.55
5	167534	31.11	36.55
5	168091	31.21	36.55
5	168648	31.31	36.55
5	169205	31.41	36.55
5	169762	31.51	36.55
5	170319	31.61	36.55
5	170876	31.71	36.55
5	171433	31.81	36.55
5	171990	31.91	36.55
5	172555	32.01	36.55
5	173112	32.11	36.55
5	173669	32.21	36.55
5	174226	32.31	36.55
5	174783	32.41	36.55
5	175340	32.51	36.55
5	175897	32.61	36.55
5	176454	32.71	36.55
5	177011	32.81	36.55
5	177568	32.91	36.55
5	178133	33.01	36.55
5	178690	33.11	36.55
5	179247	33.21	36.55
5	179804	33.31	36.55
4	232	1.11	211.51262931784
4	788	1.21	215.67929610902
4	1344	1.31	219.84596289613
4	1900	1.41	224.01262967773
4	2456	1.51	228.17929645276
4	3012	1.61	232.34596322046
4	3568	1.71	236.51262998032
4	4124	1.81	240.67929673208
4	4680	1.91	244.84596347568
4	5244	2.01	249.0126302112
4	5800	2.11	253.17929693885
4	6356	2.21	257.34596365896
4	6912	2.31	261.51263037192
4	7468	2.41	265.67929707819
4	8024	2.51	269.84596377825
4	8580	2.61	274.01263047263
4	9136	2.71	278.17929716185
4	9692	2.81	282.34596384642
4	10248	2.91	286.51263052687
4	10812	3.01	290.67929720369
4	11368	3.11	294.84596387735
4	11924	3.21	299.01263054828
4	12480	3.31	303.17929721691
4	13036	3.41	307.34596388361
4	13592	3.51	311.51263054873
4	14148	3.61	315.67929721258
4	14704	3.71	319.84596387543
4	15260	3.81	324.01263053755
4	15816	3.91	328.17929719913
4	16380	4.01	332.34596386037
4	16936	4.11	336.51263052142
4	17492	4.21	340.67929718242
4	18048	4.31	344.84596384349
4	18604	4.41	349.0126305047
4	19160	4.51	353.17929716614
4	19716	4.61	357.34596382785
4	20272	4.71	361.51263048987
4	20828	4.81	365.67929715224
4	21384	4.91	369.84596381496
4	21949	5.01	374.01263047805
4	22506	5.11	378.17929850678
4	23063	5.21	382.34619303758
4	23620	5.31	386.5140876621
4	24177	5.41	390.68420700798
4	24734	5.51	394.85810105891
4	25291	5.61	399.03750467729
4	25848	5.71	403.2241033476
4	26405	5.81	407.41929911021
4	26962	5.91	411.6242422584
4	27527	6.01	415.83987643326
4	28084	6.11	420.06697574919
4	28641	6.21	424.30617524959
4	29198	6.31	428.55799589127
4	29755	6.41	432.82286504023
4	30312	6.51	437.10113325378
4	30869	6.61	441.39305828184
4	31426	6.71	445.69859369147
4	31983	6.81	450.01721296611
4	32540	6.91	454.34792732944
4	33105	7.01	458.68932206865
4	33662	7.11	463.03960006925
4	34219	7.21	467.39663140527
4	34776	7.31	471.75800781738
4	35333	7.41	476.12110136861
4	35890	7.51	480.48319913171
4	36447	7.61	484.84180330032
4	37004	7.71	489.19484672912
4	37561	7.81	493.54063363898
4	38118	7.91	497.87777290036
4	38683	8.01	502.2051233025
4	39240	8.11	506.52174865512
4	39797	8.21	510.82688095608
4	40354	8.31	515.11989017616
4	40911	8.41	519.40025947195
4	41468	8.51	523.66756485183
4	42025	8.61	527.921458495
4	42582	8.71	532.16165506727
4	43139	8.81	536.3879204952
4	43696	8.91	540.60006275707
4	44261	9.01	544.79792432815
4	44818	9.11	548.98137598333
4	45375	9.21	553.150311713
4	45932	9.31	557.30464455235
4	46489	9.41	561.44430315996
4	47046	9.51	565.5692312738
4	47603	9.61	569.67962419426
4	48160	9.71	573.77634324267
4	48717	9.81	577.86088018141
4	49274	9.91	581.93525212354
4	49839	10.01	586.00189690857
4	50396	10.11	590.06357025332
4	50953	10.21	594.12324491706
4	51510	10.31	598.1838491137
4	52067	10.41	602.2479041524
4	52624	10.51	606.31748485901
4	53181	10.61	610.3942933134
4	53738	10.71	614.47972581389
4	54295	10.81	618.57492781145
4	54852	10.91	622.68083897481
4	55417	11.01	626.79823015963
4	55974	11.11	630.92773373605
4	56531	11.21	635.06986846783
4	57088	11.31	639.22505992192
4	57645	11.41	643.39365721147
4	58202	11.51	647.57594673085
4	58759	11.61	651.7721634232
4	59316	11.71	655.98250002371
4	59873	11.81	660.20711464238
4	60430	11.91	664.44612218507
4	60995	12.01	668.699317622
4	61552	12.11	672.96585563721
4	62109	12.21	677.24430712937
4	62666	12.31	681.53274620783
4	63223	12.41	685.82883898386
4	63780	12.51	690.12993279386
4	64337	12.61	694.43314542963
4	64894	12.71	698.73558814203
4	65451	12.81	703.03471515664
4	66008	12.91	707.3284273687
4	66573	13.01	711.61500278119
4	67130	13.11	715.89302875679
4	67687	13.21	720.16134644086
4	68244	13.31	724.41900516898
4	68801	13.41	728.66522506521
4	69358	13.51	732.89936635965
4	69915	13.61	737.12090421813
4	70472	13.71	741.32940809385
4	71029	13.81	745.52452478848
4	71586	13.91	749.70596455636
4	72151	14.01	753.87348970512
4	72708	14.11	758.02690524425
4	73265	14.21	762.16605121359
4	73822	14.31	766.29079639014
4	74379	14.41	770.40103390633
4	74936	14.51	774.49683030003
4	75493	14.61	778.57880087726
4	76050	14.71	782.64818937263
4	76607	14.81	786.7067816035
4	77164	14.91	790.75681105406
4	77729	15.01	794.8008643264
4	78286	15.11	798.84178733891
4	78843	15.21	802.88252296533
4	79400	15.31	806.92578035889
4	79957	15.41	810.97380125534
4	80514	15.51	815.02842465878
4	81071	15.61	819.0911591931
4	81628	15.71	823.16324245537
4	82185	15.81	827.24568970621
4	82742	15.91	831.33933381295
4	83307	16.01	835.4448580169
4	83864	16.11	839.56282281391
4	84421	16.21	843.69368800577
4	84978	16.31	847.83783079012
4	85535	16.41	851.9955606004
4	86092	16.51	856.16713127981
4	86649	16.61	860.35275106817
4	87206	16.71	864.55259079468
4	87763	16.81	868.76679059878
4	88320	16.91	872.99546442915
4	88885	17.01	877.23851578179
4	89442	17.11	881.49524628646
4	89999	17.21	885.76434228189
4	90556	17.31	890.04396447127
4	91113	17.41	894.33184034255
4	91670	17.51	898.62535682115
4	92227	17.61	902.92165243966
4	92784	17.71	907.217801553
4	93341	17.81	911.51115189701
4	93898	17.91	915.79951149985
4	94463	18.01	920.08108218116
4	95020	18.11	924.35438880673
4	95577	18.21	928.61822125272
4	96134	18.31	932.8715867961
4	96691	18.41	937.11367105822
4	97248	18.51	941.34380596492
4	97805	18.61	945.56144346274
4	98362	18.71	949.76613395691
4	98919	18.81	953.95750862315
4	99476	18.91	958.13526489709
4	100041	19.01	962.29915457055
4	100598	19.11	966.44897402639
4	101155	19.21	970.58455622762
4	101712	19.31	974.70576414572
4	102269	19.41	978.81248628834
4	102826	19.51	982.90480782138
4	103383	19.61	986.98339628181
4	103940	19.71	991.04953940382
4	104497	19.81	995.10505664712
4	105054	19.91	999.15220603836
4	105619	20.01	1003.1935908168
4	106176	20.11	1007.2320666606
4	106733	20.21	1011.2705655618
4	107290	20.31	1015.3117608166
4	107847	20.41	1019.3578627959
4	108404	20.51	1023.4106847738
4	108961	20.61	1027.4717142667
4	109518	20.71	1031.542171556
4	110075	20.81	1035.6230576976
4	110632	20.91	1039.715193906
4	111197	21.01	1043.8192538629
4	111754	21.11	1047.9357902223
4	112311	21.21	1052.0652563527
4	112868	21.31	1056.2080241743
4	113425	21.41	1060.3643987911
4	113982	21.51	1064.5346304947
4	114539	21.61	1068.7189246115
4	115096	21.71	1072.9174495805
4	115653	21.81	1077.1303435804
4	116210	21.91	1081.3577190173
4	116775	22.01	1085.5994865988
4	117332	22.11	1089.8549673654
4	117889	22.21	1094.1228639567
4	118446	22.31	1098.4013495457
4	119003	22.41	1102.6881607235
4	119560	22.51	1106.9806905934
4	120117	22.61	1111.2760813211
4	120674	22.71	1115.5714032591
4	121231	22.81	1119.8639909024
4	121788	22.91	1124.1516406963
4	122353	23.01	1128.4325449582
4	122910	23.11	1132.705220759
4	123467	23.21	1136.9684515802
4	124024	23.31	1141.2212394528
4	124581	23.41	1145.462765695
4	125138	23.51	1149.6923587022
4	125695	23.61	1153.9094675248
4	126252	23.71	1158.1136401925
4	126809	23.81	1162.3045059318
4	127366	23.91	1166.4817605796
4	127931	24.01	1170.6451546162
4	128488	24.11	1174.7944833483
4	129045	24.21	1178.9295788564
4	129602	24.31	1183.0503033878
4	130159	24.41	1187.156544875
4	130716	24.51	1191.2483910786
4	131273	24.61	1195.3265167191
4	131830	24.71	1199.3922155846
4	132387	24.81	1203.4473117678
4	132944	24.91	1207.4940666802
4	133509	25.01	1211.535085861
4	134066	25.11	1215.5732263444
4	134623	25.21	1219.6114186475
4	135180	25.31	1223.6523311665
4	135737	25.41	1227.6981699854
4	136294	25.51	1231.7507448616
4	136851	25.61	1235.8115404265
4	137408	25.71	1239.8817745948
4	137965	25.81	1243.9624464809
4	138522	25.91	1248.0543757065
4	139087	26.01	1252.1582346471
4	139644	26.11	1256.2745748844
4	140201	26.21	1260.4038489079
4	140758	26.31	1264.5464279163
4	141315	26.41	1268.702616422
4	141872	26.51	1272.8726642312
4	142429	26.61	1277.0567762719
4	142986	26.71	1281.2551206565
4	143543	26.81	1285.4678352958
4	144100	26.91	1289.6950323829
4	144665	27.01	1293.9366235888
4	145222	27.11	1298.1919326198
4	145779	27.21	1302.4596643622
4	146336	27.31	1306.7379937085
4	146893	27.41	1311.024658506
4	147450	27.51	1315.3170527117
4	148007	27.61	1319.6123189946
4	148564	27.71	1323.9075271601
4	149121	27.81	1328.2000098851
4	149678	27.91	1332.4875620241
4	150243	28.01	1336.7683745898
4	150800	28.11	1341.0409635824
4	151357	28.21	1345.3041116054
4	151914	28.31	1349.5568199695
4	152471	28.41	1353.7982694016
4	153028	28.51	1358.0277878126
4	153585	28.61	1362.2448238551
4	154142	28.71	1366.4489252324
4	154699	28.81	1370.6397209035
4	155256	28.91	1374.8169064857
4	155821	29.01	1378.9802322792
4	156378	29.11	1383.1294934429
4	156935	29.21	1387.2645219361
4	157492	29.31	1391.3851799068
4	158049	29.41	1395.4913552083
4	158606	29.51	1399.5831359587
4	159163	29.61	1403.6611978679
4	159720	29.71	1407.7268355577
4	160277	29.81	1411.781873759
4	160834	29.91	1415.8285743495
4	161399	30.01	1419.8695431851
4	161956	30.11	1423.9076374868
4	162513	30.21	1427.9457875687
4	163070	30.31	1431.9866611523
4	163627	30.41	1436.0324637312
4	164184	30.51	1440.0850045788
4	164741	30.61	1444.1457679289
4	165298	30.71	1448.2159713706
4	165855	30.81	1452.2966137508
4	166412	30.91	1456.3885144721
4	166977	31.01	1460.4923457298
4	167534	31.11	1464.6086589582
4	168091	31.21	1468.7379065256
4	168648	31.31	1472.8804595315
4	169205	31.41	1477.0366224067
4	169762	31.51	1481.2066448907
4	170319	31.61	1485.3907318566
4	170876	31.71	1489.5890513718
4	171433	31.81	1493.8017413102
4	171990	31.91	1498.0289138355
4	172555	32.01	1502.2704807516
4	173112	32.11	1506.5257661317
4	173669	32.21	1510.7934751716
4	174226	32.31	1515.0717830007
4	174783	32.41	1519.3584276391
4	175340	32.51	1523.6508031616
4	175897	32.61	1527.9460523062
4	176454	32.71	1532.2412448034
4	177011	32.81	1536.5337130793
4	177568	32.91	1540.8212517696
4	178133	33.01	1545.1020517071
4	178690	33.11	1549.3746287448
4	179247	33.21	1553.637765365
4	179804	33.31	1557.8904627793
3	232	1.11	41.666667929418
3	788	1.21	41.666667899951
3	1344	1.31	41.666667853658
3	1900	1.41	41.666667794392
3	2456	1.51	41.666667725546
3	3012	1.61	41.666667650077
3	3568	1.71	41.666667570527
3	4124	1.81	41.666667489057
3	4680	1.91	41.666667407473
3	5244	2.01	41.666667327259
3	5800	2.11	41.666667249607
3	6356	2.21	41.66666717545
3	6912	2.31	41.66666710549
3	7468	2.41	41.666667040228
3	8024	2.51	41.66666697999
3	8580	2.61	41.666666924954
3	9136	2.71	41.666666875173
3	9692	2.81	41.666666830595
3	10248	2.91	41.666666791086
3	10812	3.01	41.666666756443
3	11368	3.11	41.666666726414
3	11924	3.21	41.666666700707
3	12480	3.31	41.666666679009
3	13036	3.41	41.666666660987
3	13592	3.51	41.666666646305
3	14148	3.61	41.666666634625
3	14704	3.71	41.666666625619
3	15260	3.81	41.666666618967
3	15816	3.91	41.666666614365
3	16380	4.01	41.666666611529
3	16936	4.11	41.66666661019
3	17492	4.21	41.666666610106
3	18048	4.31	41.66666661105
3	18604	4.41	41.666666612823
3	19160	4.51	41.666666615243
3	19716	4.61	41.666666618151
3	20272	4.71	41.666666621406
3	20828	4.81	41.666666624888
3	21384	4.91	41.666666628494
3	21949	5.01	41.666666632137
3	22506	5.11	41.666734900033
3	23063	5.21	41.670948476405
3	23620	5.31	41.684664742913
3	24177	5.41	41.711945167374
3	24734	5.51	41.755610823567
3	25291	5.61	41.816952665848
3	25848	5.71	41.894216596382
3	26405	5.81	41.984547685456
3	26962	5.91	42.085598395823
3	27527	6.01	42.195442929292
3	28084	6.11	42.312501460593
3	28641	6.21	42.43547798275
3	29198	6.31	42.563309318645
3	29755	6.41	42.695123292736
3	30312	6.51	42.830202833657
3	30869	6.61	42.967277868462
3	31426	6.71	43.102240784882
3	31983	6.81	43.23027401884
3	32540	6.91	43.346870620625
3	33105	7.01	43.447913783684
3	33662	7.11	43.529744939715
3	34219	7.21	43.589220237998
3	34776	7.31	43.623755328609
3	35333	7.41	43.631381416411
3	35890	7.51	43.612092454521
3	36447	7.61	43.56932103241
3	37004	7.71	43.507285813978
3	37561	7.81	43.429447572987
3	38118	7.91	43.338645349306
3	38683	8.01	43.237208144466
3	39240	8.11	43.127046550912
3	39797	8.21	43.00972791991
3	40354	8.31	42.886538025405
3	40911	8.41	42.758531649867
3	41468	8.51	42.626574082303
3	42025	8.61	42.491375161077
3	42582	8.71	42.353517200886
3	43139	8.81	42.2134779026
3	43696	8.91	42.071649147316
3	44261	9.01	41.928352414027
3	44818	9.11	41.783851427477
3	45375	9.21	41.638362533812
3	45932	9.31	41.492063212224
3	46489	9.41	41.345099057468
3	47046	9.51	41.197687195957
3	47603	9.61	41.054345829873
3	48160	9.71	40.92197732765
3	48717	9.81	40.806518415565
3	49274	9.91	40.712854985186
3	49839	10.01	40.644830941643
3	50396	10.11	40.605270576133
3	50953	10.21	40.595961789979
3	51510	10.31	40.614765090574
3	52067	10.41	40.657138101268
3	52624	10.51	40.71884648357
3	53181	10.61	40.796416605098
3	53738	10.71	40.886998877433
3	54295	10.81	40.988255645561
3	54852	10.91	41.098269218164
3	55417	11.01	41.215466420431
3	55974	11.11	41.33855670108
3	56531	11.21	41.46648135856
3	57088	11.31	41.598371888854
3	57645	11.41	41.733515816169
3	58202	11.51	41.8713286622
3	58759	11.61	42.01133095116
3	59316	11.71	42.153129345907
3	59873	11.81	42.296401172981
3	60430	11.91	42.440475080365
3	60995	12.01	42.58031618601
3	61552	12.11	42.709536275545
3	62109	12.21	42.822598150946
3	62666	12.31	42.914842923842
3	63223	12.41	42.98250305941
3	63780	12.51	43.022702120469
3	64337	12.61	43.033484343958
3	64894	12.71	43.016216261811
3	65451	12.81	42.975102664961
3	66008	12.91	42.914427440664
3	66573	13.01	42.837704868549
3	67130	13.11	42.747817881934
3	67687	13.21	42.647131490264
3	68244	13.31	42.537585825019
3	68801	13.41	42.420772469757
3	69358	13.51	42.297997077347
3	69915	13.61	42.170330737898
3	70472	13.71	42.038652118361
3	71029	13.81	41.903682031675
3	71586	13.91	41.766011795509
3	72151	14.01	41.626126496309
3	72708	14.11	41.484424073913
3	73265	14.21	41.341230977594
3	73822	14.31	41.196815009456
3	74379	14.41	41.051434913329
3	74936	14.51	40.908219760552
3	75493	14.61	40.773448085166
3	76050	14.71	40.653147856182
3	76607	14.81	40.552410818743
3	77164	14.91	40.47538209096
3	77729	15.01	40.425263577507
3	78286	15.11	40.404308597451
3	78843	15.21	40.412557746568
3	79400	15.31	40.44627267704
3	79957	15.41	40.500878417952
3	80514	15.51	40.572621899691
3	81071	15.61	40.658424297982
3	81628	15.71	40.755759904564
3	82185	15.81	40.862556758959
3	82742	15.91	40.977115131913
3	83307	16.01	41.098040653421
3	83864	16.11	41.224189454421
3	84421	16.21	41.354623163871
3	84978	16.31	41.488571990683
3	85535	16.41	41.625404438048
3	86092	16.51	41.76460245863
3	86649	16.61	41.905741073179
3	87206	16.71	42.04847165069
3	87763	16.81	42.19250819231
3	88320	16.91	42.337565506681
3	88885	17.01	42.4798603368
3	89442	17.11	42.612895096878
3	89999	17.21	42.730819673225
3	90556	17.31	42.828699680314
3	91113	17.41	42.90252772365
3	91670	17.51	42.949221043622
3	92227	17.61	42.966635531731
3	92784	17.71	42.955239679248
3	93341	17.81	42.91894335602
3	93898	17.91	42.862219973949
3	94463	18.01	42.788739288885
3	95020	18.11	42.7015117788
3	95577	18.21	42.603007084181
3	96134	18.31	42.495251170402
3	96691	18.41	42.379906034713
3	97248	18.51	42.258335093733
3	97805	18.61	42.131656823968
3	98362	18.71	42.000788765715
3	98919	18.81	41.866483621601
3	99476	18.91	41.729358869944
3	100041	19.01	41.589921058033
3	100598	19.11	41.448585731074
3	101155	19.21	41.305693780873
3	101712	19.31	41.161524857441
3	102269	19.41	41.016354307546
3	102826	19.51	40.873722785233
3	103383	19.61	40.740048622954
3	103940	19.71	40.621247784992
3	104497	19.81	40.522312925574
3	105054	19.91	40.447302443002
3	105619	20.01	40.399343226154
3	106176	20.11	40.380619836989
3	106733	20.21	40.390852261269
3	107290	20.31	40.42619416815
3	107847	20.41	40.482134596392
3	108404	20.51	40.554972986614
3	108961	20.61	40.641673591217
3	109518	20.71	40.73974603982
3	110075	20.81	40.847147361314
3	110632	20.91	40.962201607825
3	111197	21.01	41.083533918363
3	111754	21.11	41.210016428051
3	112311	21.21	41.340723894856
3	112868	21.31	41.47489729805
3	113425	21.41	41.611913976267
3	113982	21.51	41.751263130315
3	114539	21.61	41.892525726947
3	115096	21.71	42.035358012948
3	115653	21.81	42.179477990955
3	116210	21.91	42.324606891881
3	116775	22.01	42.467114711865
3	117332	22.11	42.600552801533
3	117889	22.21	42.71902961828
3	118446	22.31	42.817574119593
3	119003	22.41	42.892146826113
3	119560	22.51	42.939637219565
3	120117	22.61	42.957875746063
3	120674	22.71	42.947212316072
3	121231	22.81	42.911516834389
3	121788	22.91	42.855286351658
3	122353	23.01	42.78221001573
3	122910	23.11	42.695314212772
3	123467	23.21	42.59708163353
3	124024	23.31	42.489548949138
3	124581	23.41	42.374386939297
3	125138	23.51	42.252966225295
3	125695	23.61	42.126411193975
3	126252	23.71	41.995644234173
3	126809	23.81	41.861422026
3	127366	23.91	41.724365310702
3	127931	24.01	41.584983312302
3	128488	24.11	41.443693771862
3	129045	24.21	41.300839382553
3	129602	24.31	41.156701272136
3	130159	24.41	41.011556940943
3	130716	24.51	40.869003238384
3	131273	24.61	40.735477564529
3	131830	24.71	40.616880524647
3	132387	24.81	40.518191181199
3	132944	24.91	40.443456034258
3	133509	25.01	40.395791677168
3	134066	25.11	40.377373233275
3	134623	25.21	40.387876729909
3	135180	25.31	40.423441010534
3	135737	25.41	40.479563862699
3	136294	25.51	40.552551904076
3	136851	25.61	40.63937527475
3	137408	25.71	40.73754843429
3	137965	25.81	40.845032373831
3	138522	25.91	40.960154395916
3	139087	26.01	41.08154230603
3	139644	26.11	41.208070426737
3	140201	26.21	41.338815310463
3	140758	26.31	41.473019408564
3	141315	26.41	41.610061267297
3	141872	26.51	41.749431078138
3	142429	26.61	41.890710620534
3	142986	26.71	42.033556807965
3	143543	26.81	42.177688189986
3	144100	26.91	42.32282679545
3	144665	27.01	42.465363471292
3	145222	27.11	42.598856642818
3	145779	27.21	42.717409067934
3	146336	27.31	42.816044660405
3	146893	27.41	42.890719525564
3	147450	27.51	42.938319324542
3	148007	27.61	42.956671000835
3	148564	27.71	42.946108152695
3	149121	27.81	42.910495183162
3	149678	27.91	42.854332389134
3	150243	28.01	42.781311581518
3	150800	28.11	42.694461331116
3	151357	28.21	42.596266120836
3	151914	28.31	42.488764092008
3	152471	28.41	42.373627230407
3	153028	28.51	42.252227146722
3	153585	28.61	42.125689039447
3	154142	28.71	41.994935963255
3	154699	28.81	41.86072514448
3	155256	28.91	41.723677772453
3	155821	29.01	41.584303438791
3	156378	29.11	41.443020186105
3	156935	29.21	41.300170954946
3	157492	29.31	41.156037076006
3	158049	29.41	41.010896345715
3	158606	29.51	40.868353351213
3	159163	29.61	40.734848117978
3	159720	29.71	40.616279136189
3	160277	29.81	40.517623596567
3	160834	29.91	40.442926360655
3	161399	30.01	40.395302603962
3	161956	30.11	40.376926150007
3	162513	30.21	40.387466972619
3	163070	30.31	40.423061873548
3	163627	30.41	40.479209845027
3	164184	30.51	40.55221849299
3	164741	30.61	40.639058768242
3	165298	30.71	40.737245795424
3	165855	30.81	40.844741111261
3	166412	30.91	40.959872465872
3	166977	31.01	41.081268031907
3	167534	31.11	41.207802433136
3	168091	31.21	41.338552469078
3	168648	31.31	41.47276079379
3	169205	31.41	41.609806119816
3	169762	31.51	41.749178775045
3	170319	31.61	41.890460650831
3	170876	31.71	42.033308752454
3	171433	31.81	42.177441704779
3	171990	31.91	42.32258164654
3	172555	32.01	42.465122296168
3	173112	32.11	42.598623053264
3	173669	32.21	42.71718589082
3	174226	32.31	42.815834027991
3	174783	32.41	42.890522962046
3	175340	32.51	42.938137827955
3	175897	32.61	42.956505086842
3	176454	32.71	42.945956090486
3	177011	32.81	42.910354484241
3	177568	32.91	42.854201012067
3	178133	33.01	42.781187851618
3	178690	33.11	42.694343874556
3	179247	33.21	42.5961538106
3	179804	33.31	42.488656003551
1	232	1.11	0
1	788	1.21	0
1	1344	1.31	0
1	1900	1.41	0
1	2456	1.51	0
1	3012	1.61	0
1	3568	1.71	0
1	4124	1.81	0
1	4680	1.91	0
1	5244	2.01	0
1	5800	2.11	0
1	6356	2.21	0
1	6912	2.31	0
1	7468	2.41	0
1	8024	2.51	0
1	8580	2.61	0
1	9136	2.71	0
1	9692	2.81	0
1	10248	2.91	0
1	10812	3.01	0
1	11368	3.11	0
1	11924	3.21	0
1	12480	3.31	0
1	13036	3.41	0
1	13592	3.51	0
1	14148	3.61	0
1	14704	3.71	0
1	15260	3.81	0
1	15816	3.91	0
1	16380	4.01	0
1	16936	4.11	0
1	17492	4.21	0
1	18048	4.31	0
1	18604	4.41	0
1	19160	4.51	0
1	19716	4.61	0
1	20272	4.71	0
1	20828	4.81	0
1	21384	4.91	0
1	21949	5.01	0
1	22506	5.11	0
1	23063	5.21	0
1	23620	5.31	0
1	24177	5.41	0
1	24734	5.51	0
1	25291	5.61	0
1	25848	5.71	0
1	26405	5.81	0
1	26962	5.91	0
1	27527	6.01	0
1	28084	6.11	0
1	28641	6.21	0
1	29198	6.31	0
1	29755	6.41	0
1	30312	6.51	0
1	30869	6.61	0
1	31426	6.71	0
1	31983	6.81	0
1	32540	6.91	0
1	33105	7.01	0
1	33662	7.11	0
1	34219	7.21	0
1	34776	7.31	0
1	35333	7.41	0
1	35890	7.51	0
1	36447	7.61	0
1	37004	7.71	0
1	37561	7.81	0
1	38118	7.91	0
1	38683	8.01	0
1	39240	8.11	0
1	39797	8.21	0
1	40354	8.31	0
1	40911	8.41	0
1	41468	8.51	0
1	42025	8.61	0
1	42582	8.71	0
1	43139	8.81	0
1	43696	8.91	0
1	44261	9.01	0
1	44818	9.11	0
1	45375	9.21	0
1	45932	9.31	0
1	46489	9.41	0
1	47046	9.51	0
1	47603	9.61	0
1	48160	9.71	0
1	48717	9.81	0
1	49274	9.91	0
1	49839	10.01	0
1	50396	10.11	0
1	50953	10.21	0
1	51510	10.31	0
1	52067	10.41	0
1	52624	10.51	0
1	53181	10.61	0
1	53738	10.71	0
1	54295	10.81	0
1	54852	10.91	0
1	55417	11.01	0
1	55974	11.11	0
1	56531	11.21	0
1	57088	11.31	0
1	57645	11.41	0
1	58202	11.51	0
1	58759	11.61	0
1	59316	11.71	0
1	59873	11.81	0
1	60430	11.91	0
1	60995	12.01	0
1	61552	12.11	0
1	62109	12.21	0
1	62666	12.31	0
1	63223	12.41	0
1	63780	12.51	0
1	64337	12.61	0
1	64894	12.71	0
1	65451	12.81	0
1	66008	12.91	0
1	66573	13.01	0
1	67130	13.11	0
1	67687	13.21	0
1	68244	13.31	0
1	68801	13.41	0
1	69358	13.51	0
1	69915	13.61	0
1	70472	13.71	0
1	71029	13.81	0
1	71586	13.91	0
1	72151	14.01	0
1	72708	14.11	0
1	73265	14.21	0
1	73822	14.31	0
1	74379	14.41	0
1	74936	14.51	0
1	75493	14.61	0
1	76050	14.71	0
1	76607	14.81	0
1	77164	14.91	0
1	77729	15.01	0
1	78286	15.11	0
1	78843	15.21	0
1	79400	15.31	0
1	79957	15.41	0
1	80514	15.51	0
1	81071	15.61	0
1	81628	15.71	0
1	82185	15.81	0
1	82742	15.91	0
1	83307	16.01	0
1	83864	16.11	0
1	84421	16.21	0
1	84978	16.31	0
1	85535	16.41	0
1	86092	16.51	0
1	86649	16.61	0
1	87206	16.71	0
1	87763	16.81	0
1	88320	16.91	0
1	88885	17.01	0
1	89442	17.11	0
1	89999	17.21	0
1	90556	17.31	0
1	91113	17.41	0
1	91670	17.51	0
1	92227	17.61	0
1	92784	17.71	0
1	93341	17.81	0
1	93898	17.91	0
1	94463	18.01	0
1	95020	18.11	0
1	95577	18.21	0
1	96134	18.31	0
1	96691	18.41	0
1	97248	18.51	0
1	97805	18.61	0
1	98362	18.71	0
1	98919	18.81	0
1	99476	18.91	0
1	100041	19.01	0
1	100598	19.11	0
1	101155	19.21	0
1	101712	19.31	0
1	102269	19.41	0
1	102826	19.51	0
1	103383	19.61	0
1	103940	19.71	0
1	104497	19.81	0
1	105054	19.91	0
1	105619	20.01	0
1	106176	20.11	0
1	106733	20.21	0
1	107290	20.31	0
1	107847	20.41	0
1	108404	20.51	0
1	108961	20.61	0
1	109518	20.71	0
1	110075	20.81	0
1	110632	20.91	0
1	111197	21.01	0
1	111754	21.11	0
1	112311	21.21	0
1	112868	21.31	0
1	113425	21.41	0
1	113982	21.51	0
1	114539	21.61	0
1	115096	21.71	0
1	115653	21.81	0
1	116210	21.91	0
1	116775	22.01	0
1	117332	22.11	0
1	117889	22.21	0
1	118446	22.31	0
1	119003	22.41	0
1	119560	22.51	0
1	120117	22.61	0
1	120674	22.71	0
1	121231	22.81	0
1	121788	22.91	0
1	122353	23.01	0
1	122910	23.11	0
1	123467	23.21	0
1	124024	23.31	0
1	124581	23.41	0
1	125138	23.51	0
1	125695	23.61	0
1	126252	23.71	0
1	126809	23.81	0
1	127366	23.91	0
1	127931	24.01	0
1	128488	24.11	0
1	129045	24.21	0
1	129602	24.31	0
1	130159	24.41	0
1	130716	24.51	0
1	131273	24.61	0
1	131830	24.71	0
1	132387	24.81	0
1	132944	24.91	0
1	133509	25.01	0
1	134066	25.11	0
1	134623	25.21	0
1	135180	25.31	0
1	135737	25.41	0
1	136294	25.51	0
1	136851	25.61	0
1	137408	25.71	0
1	137965	25.81	0
1	138522	25.91	0
1	139087	26.01	0
1	139644	26.11	0
1	140201	26.21	0
1	140758	26.31	0
1	141315	26.41	0
1	141872	26.51	0
1	142429	26.61	0
1	142986	26.71	0
1	143543	26.81	0
1	144100	26.91	0
1	144665	27.01	0
1	145222	27.11	0
1	145779	27.21	0
1	146336	27.31	0
1	146893	27.41	0
1	147450	27.51	0
1	148007	27.61	0
1	148564	27.71	0
1	149121	27.81	0
1	149678	27.91	0
1	150243	28.01	0
1	150800	28.11	0
1	151357	28.21	0
1	151914	28.31	0
1	152471	28.41	0
1	153028	28.51	0
1	153585	28.61	0
1	154142	28.71	0
1	154699	28.81	0
1	155256	28.91	0
1	155821	29.01	0
1	156378	29.11	0
1	156935	29.21	0
1	157492	29.31	0
1	158049	29.41	0
1	158606	29.51	0
1	159163	29.61	0
1	159720	29.71	0
1	160277	29.81	0
1	160834	29.91	0
1	161399	30.01	0
1	161956	30.11	0
1	162513	30.21	0
1	163070	30.31	0
1	163627	30.41	0
1	164184	30.51	0
1	164741	30.61	0
1	165298	30.71	0
1	165855	30.81	0
1	166412	30.91	0
1	166977	31.01	0
1	167534	31.11	0
1	168091	31.21	0
1	168648	31.31	0
1	169205	31.41	0
1	169762	31.51	0
1	170319	31.61	0
1	170876	31.71	0
1	171433	31.81	0
1	171990	31.91	0
1	172555	32.01	0
1	173112	32.11	0
1	173669	32.21	0
1	174226	32.31	0
1	174783	32.41	0
1	175340	32.51	0
1	175897	32.61	0
1	176454	32.71	0
1	177011	32.81	0
1	177568	32.91	0
1	178133	33.01	0
1	178690	33.11	0
1	179247	33.21	0
1	179804	33.31	0
0	232	1.11	-1
0	788	1.21	-1
0	1344	1.31	-1
0	1900	1.41	-1
0	2456	1.51	-1
0	3012	1.61	-1
0	3568	1.71	-1
0	4124	1.81	-1
0	4680	1.91	-1
0	5244	2.01	-1
0	5800	2.11	-1
0	6356	2.21	-1
0	6912	2.31	-1
0	7468	2.41	-1
0	8024	2.51	-1
0	8580	2.61	-1
0	9136	2.71	-1
0	9692	2.81	-1
0	10248	2.91	-1
0	10812	3.01	-1
0	11368	3.11	-1
0	11924	3.21	-1
0	12480	3.31	-1
0	13036	3.41	-1
0	13592	3.51	-1
0	14148	3.61	-1
0	14704	3.71	-1
0	15260	3.81	-1
0	15816	3.91	-1
0	16380	4.01	-1
0	16936	4.11	-1
0	17492	4.21	-1
0	18048	4.31	-1
0	18604	4.41	-1
0	19160	4.51	-1
0	19716	4.61	-1
0	20272	4.71	-1
0	20828	4.81	-1
0	21384	4.91	-1
0	21949	5.01	-1
0	22506	5.11	-1
0	23063	5.21	-1
0	23620	5.31	-1
0	24177	5.41	-1
0	24734	5.51	-1
0	25291	5.61	-1
0	25848	5.71	-1
0	26405	5.81	-1
0	26962	5.91	-1
0	27527	6.01	-1
0	28084	6.11	-1
0	28641	6.21	-1
0	29198	6.31	-1
0	29755	6.41	-1
0	30312	6.51	-1
0	30869	6.61	-1
0	31426	6.71	-1
0	31983	6.81	-1
0	32540	6.91	-1
0	33105	7.01	-1
0	33662	7.11	-1
0	34219	7.21	-1
0	34776	7.31	-1
0	35333	7.41	-1
0	35890	7.51	-1
0	36447	7.61	-1
0	37004	7.71	-1
0	37561	7.81	-1
0	38118	7.91	-1
0	38683	8.01	-1
0	39240	8.11	-1
0	39797	8.21	-1
0	40354	8.31	-1
0	40911	8.41	-1
0	41468	8.51	-1
0	42025	8.61	-1
0	42582	8.71	-1
0	43139	8.81	-1
0	43696	8.91	-1
0	44261	9.01	-1
0	44818	9.11	-1
0	45375	9.21	-1
0	45932	9.31	-1
0	46489	9.41	-1
0	47046	9.51	-1
0	47603	9.61	-1
0	48160	9.71	-1
0	48717	9.81	-1
0	49274	9.91	-1
0	49839	10.01	-1
0	50396	10.11	-1
0	50953	10.21	-1
0	51510	10.31	-1
0	52067	10.41	-1
0	52624	10.51	-1
0	53181	10.61	-1
0	53738	10.71	-1
0	54295	10.81	-1
0	54852	10.91	-1
0	55417	11.01	-1
0	55974	11.11	-1
0	56531	11.21	-1
0	57088	11.31	-1
0	57645	11.41	-1
0	58202	11.51	-1
0	58759	11.61	-1
0	59316	11.71	-1
0	59873	11.81	-1
0	60430	11.91	-1
0	60995	12.01	-1
0	61552	12.11	-1
0	62109	12.21	-1
0	62666	12.31	-1
0	63223	12.41	-1
0	63780	12.51	-1
0	64337	12.61	-1
0	64894	12.71	-1
0	65451	12.81	-1
0	66008	12.91	-1
0	66573	13.01	-1
0	67130	13.11	-1
0	67687	13.21	-1
0	68244	13.31	-1
0	68801	13.41	-1
0	69358	13.51	-1
0	69915	13.61	-1
0	70472	13.71	-1
0	71029	13.81	-1
0	71586	13.91	-1
0	72151	14.01	-1
0	72708	14.11	-1
0	73265	14.21	-1
0	73822	14.31	-1
0	74379	14.41	-1
0	74936	14.51	-1
0	75493	14.61	-1
0	76050	14.71	-1
0	76607	14.81	-1
0	77164	14.91	-1
0	77729	15.01	-1
0	78286	15.11	-1
0	78843	15.21	-1
0	79400	15.31	-1
0	79957	15.41	-1
0	80514	15.51	-1
0	81071	15.61	-1
0	81628	15.71	-1
0	82185	15.81	-1
0	82742	15.91	-1
0	83307	16.01	-1
0	83864	16.11	-1
0	84421	16.21	-1
0	84978	16.31	-1
0	85535	16.41	-1
0	86092	16.51	-1
0	86649	16.61	-1
0	87206	16.71	-1
0	87763	16.81	-1
0	88320	16.91	-1
0	88885	17.01	-1
0	89442	17.11	-1
0	89999	17.21	-1
0	90556	17.31	-1
0	91113	17.41	-1
0	91670	17.51	-1
0	92227	17.61	-1
0	92784	17.71	-1
0	93341	17.81	-1
0	93898	17.91	-1
0	94463	18.01	-1
0	95020	18.11	-1
0	95577	18.21	-1
0	96134	18.31	-1
0	96691	18.41	-1
0	97248	18.51	-1
0	97805	18.61	-1
0	98362	18.71	-1
0	98919	18.81	-1
0	99476	18.91	-1
0	100041	19.01	-1
0	100598	19.11	-1
0	101155	19.21	-1
0	101712	19.31	-1
0	102269	19.41	-1
0	102826	19.51	-1
0	103383	19.61	-1
0	103940	19.71	-1
0	104497	19.81	-1
0	105054	19.91	-1
0	105619	20.01	-1
0	106176	20.11	-1
0	106733	20.21	-1
0	107290	20.31	-1
0	107847	20.41	-1
0	108404	20.51	-1
0	108961	20.61	-1
0	109518	20.71	-1
0	110075	20.81	-1
0	110632	20.91	-1
0	111197	21.01	-1
0	111754	21.11	-1
0	112311	21.21	-1
0	112868	21.31	-1
0	113425	21.41	-1
0	113982	21.51	-1
0	114539	21.61	-1
0	115096	21.71	-1
0	115653	21.81	-1
0	116210	21.91	-1
0	116775	22.01	-1
0	117332	22.11	-1
0	117889	22.21	-1
0	118446	22.31	-1
0	119003	22.41	-1
0	119560	22.51	-1
0	120117	22.61	-1
0	120674	22.71	-1
0	121231	22.81	-1
0	121788	22.91	-1
0	122353	23.01	-1
0	122910	23.11	-1
0	123467	23.21	-1
0	124024	23.31	-1
0	124581	23.41	-1
0	125138	23.51	-1
0	125695	23.61	-1
0	126252	23.71	-1
0	126809	23.81	-1
0	127366	23.91	-1
0	127931	24.01	-1
0	128488	24.11	-1
0	129045	24.21	-1
0	129602	24.31	-1
0	130159	24.41	-1
0	130716	24.51	-1
0	131273	24.61	-1
0	131830	24.71	-1
0	132387	24.81	-1
0	132944	24.91	-1
0	133509	25.01	-1
0	134066	25.11	-1
0	134623	25.21	-1
0	135180	25.31	-1
0	135737	25.41	-1
0	136294	25.51	-1
0	136851	25.61	-1
0	137408	25.71	-1
0	137965	25.81	-1
0	138522	25.91	-1
0	139087	26.01	-1
0	139644	26.11	-1
0	140201	26.21	-1
0	140758	26.31	-1
0	141315	26.41	-1
0	141872	26.51	-1
0	142429	26.61	-1
0	142986	26.71	-1
0	143543	26.81	-1
0	144100	26.91	-1
0	144665	27.01	-1
0	145222	27.11	-1
0	145779	27.21	-1
0	146336	27.31	-1
0	146893	27.41	-1
0	147450	27.51	-1
0	148007	27.61	-1
0	148564	27.71	-1
0	149121	27.81	-1
0	149678	27.91	-1
0	150243	28.01	-1
0	150800	28.11	-1
0	151357	28.21	-1
0	151914	28.31	-1
0	152471	28.41	-1
0	153028	28.51	-1
0	153585	28.61	-1
0	154142	28.71	-1
0	154699	28.81	-1
0	155256	28.91	-1
0	155821	29.01	-1
0	156378	29.11	-1
0	156935	29.21	-1
0	157492	29.31	-1
0	158049	29.41	-1
0	158606	29.51	-1
0	159163	29.61	-1
0	159720	29.71	-1
0	160277	29.81	-1
0	160834	29.91	-1
0	161399	30.01	-1
0	161956	30.11	-1
0	162513	30.21	-1
0	163070	30.31	-1
0	163627	30.41	-1
0	164184	30.51	-1
0	164741	30.61	-1
0	165298	30.71	-1
0	165855	30.81	-1
0	166412	30.91	-1
0	166977	31.01	-1
0	167534	31.11	-1
0	168091	31.21	-1
0	168648	31.31	-1
0	169205	31.41	-1
0	169762	31.51	-1
0	170319	31.61	-1
0	170876	31.71	-1
0	171433	31.81	-1
0	171990	31.91	-1
0	172555	32.01	-1
0	173112	32.11	-1
0	173669	32.21	-1
0	174226	32.31	-1
0	174783	32.41	-1
0	175340	32.51	-1
0	175897	32.61	-1
0	176454	32.71	-1
0	177011	32.81	-1
0	177568	32.91	-1
0	178133	33.01	-1
0	178690	33.11	-1
0	179247	33.21	-1
0	179804	33.31	-1
2	232	1.11	0
2	788	1.21	0
2	1344	1.31	0
2	1900	1.41	0
2	2456	1.51	0
2	3012	1.61	0
2	3568	1.71	0
2	4124	1.81	0
2	4680	1.91	0
2	5244	2.01	0
2	5800	2.11	0
2	6356	2.21	0
2	6912	2.31	0
2	7468	2.41	0
2	8024	2.51	0
2	8580	2.61	0
2	9136	2.71	0
2	9692	2.81	0
2	10248	2.91	0
2	10812	3.01	0
2	11368	3.11	0
2	11924	3.21	0
2	12480	3.31	0
2	13036	3.41	0
2	13592	3.51	0
2	14148	3.61	0
2	14704	3.71	0
2	15260	3.81	0
2	15816	3.91	0
2	16380	4.01	0
2	16936	4.11	0
2	17492	4.21	0
2	18048	4.31	0
2	18604	4.41	0
2	19160	4.51	0
2	19716	4.61	0
2	20272	4.71	0
2	20828	4.81	0
2	21384	4.91	0
2	21949	5.01	0
2	22506	5.11	0
2	23063	5.21	0
2	23620	5.31	0
2	24177	5.41	0
2	24734	5.51	0
2	25291	5.61	0
2	25848	5.71	0
2	26405	5.81	0
2	26962	5.91	0
2	27527	6.01	0
2	28084	6.11	0
2	28641	6.21	0
2	29198	6.31	0
2	29755	6.41	0
2	30312	6.51	0
2	30869	6.61	0
2	31426	6.71	0
2	31983	6.81	0
2	32540	6.91	0
2	33105	7.01	0
2	33662	7.11	0
2	34219	7.21	0
2	34776	7.31	0
2	35333	7.41	0
2	35890	7.51	0
2	36447	7.61	0
2	37004	7.71	0
2	37561	7.81	0
2	38118	7.91	0
2	38683	8.01	0
2	39240	8.11	0
2	39797	8.21	0
2	40354	8.31	0
2	40911	8.41	0
2	41468	8.51	0
2	42025	8.61	0
2	42582	8.71	0
2	43139	8.81	0
2	43696	8.91	0
2	44261	9.01	0
2	44818	9.11	0
2	45375	9.21	0
2	45932	9.31	0
2	46489	9.41	0
2	47046	9.51	0
2	47603	9.61	0
2	48160	9.71	0
2	48717	9.81	0
2	49274	9.91	0
2	49839	10.01	0
2	50396	10.11	0
2	50953	10.21	0
2	51510	10.31	0
2	52067	10.41	0
2	52624	10.51	0
2	53181	10.61	0
2	53738	10.71	0
2	54295	10.81	0
2	54852	10.91	0
2	55417	11.01	0
2	55974	11.11	0
2	56531	11.21	0
2	57088	11.31	0
2	57645	11.41	0
2	58202	11.51	0
2	58759	11.61	0
2	59316	11.71	0
2	59873	11.81	0
2	60430	11.91	0
2	60995	12.01	0
2	61552	12.11	0
2	62109	12.21	0
2	62666	12.31	0
2	63223	12.41	0
2	63780	12.51	0
2	64337	12.61	0
2	64894	12.71	0
2	65451	12.81	0
2	66008	12.91	0
2	66573	13.01	0
2	67130	13.11	0
2	67687	13.21	0
2	68244	13.31	0
2	68801	13.41	0
2	69358	13.51	0
2	69915	13.61	0
2	70472	13.71	0
2	71029	13.81	0
2	71586	13.91	0
2	72151	14.01	0
2	72708	14.11	0
2	73265	14.21	0
2	73822	14.31	0
2	74379	14.41	0
2	74936	14.51	0
2	75493	14.61	0
2	76050	14.71	0
2	76607	14.81	0
2	77164	14.91	0
2	77729	15.01	0
2	78286	15.11	0
2	78843	15.21	0
2	79400	15.31	0
2	79957	15.41	0
2	80514	15.51	0
2	81071	15.61	0
2	81628	15.71	0
2	82185	15.81	0
2	82742	15.91	0
2	83307	16.01	0
2	83864	16.11	0
2	84421	16.21	0
2	84978	16.31	0
2	85535	16.41	0
2	86092	16.51	0
2	86649	16.61	0
2	87206	16.71	0
2	87763	16.81	0
2	88320	16.91	0
2	88885	17.01	0
2	89442	17.11	0
2	89999	17.21	0
2	90556	17.31	0
2	91113	17.41	0
2	91670	17.51	0
2	92227	17.61	0
2	92784	17.71	0
2	93341	17.81	0
2	93898	17.91	0
2	94463	18.01	0
2	95020	18.11	0
2	95577	18.21	0
2	96134	18.31	0
2	96691	18.41	0
2	97248	18.51	0
2	97805	18.61	0
2	98362	18.71	0
2	98919	18.81	0
2	99476	18.91	0
2	100041	19.01	0
2	100598	19.11	0
2	101155	19.21	0
2	101712	19.31	0
2	102269	19.41	0
2	102826	19.51	0
2	103383	19.61	0
2	103940	19.71	0
2	104497	19.81	0
2	105054	19.91	0
2	105619	20.01	0
2	106176	20.11	0
2	106733	20.21	0
2	107290	20.31	0
2	107847	20.41	0
2	108404	20.51	0
2	108961	20.61	0
2	109518	20.71	0
2	110075	20.81	0
2	110632	20.91	0
2	111197	21.01	0
2	111754	21.11	0
2	112311	21.21	0
2	112868	21.31	0
2	113425	21.41	0
2	113982	21.51	0
2	114539	21.61	0
2	115096	21.71	0
2	115653	21.81	0
2	116210	21.91	0
2	116775	22.01	0
2	117332	22.11	0
2	117889	22.21	0
2	118446	22.31	0
2	119003	22.41	0
2	119560	22.51	0
2	120117	22.61	0
2	120674	22.71	0
2	121231	22.81	0
2	121788	22.91	0
2	122353	23.01	0
2	122910	23.11	0
2	123467	23.21	0
2	124024	23.31	0
2	124581	23.41	0
2	125138	23.51	0
2	125695	23.61	0
2	126252	23.71	0
2	126809	23.81	0
2	127366	23.91	0
2	127931	24.01	0
2	128488	24.11	0
2	129045	24.21	0
2	129602	24.31	0
2	130159	24.41	0
2	130716	24.51	0
2	131273	24.61	0
2	131830	24.71	0
2	132387	24.81	0
2	132944	24.91	0
2	133509	25.01	0
2	134066	25.11	0
2	134623	25.21	0
2	135180	25.31	0
2	135737	25.41	0
2	136294	25.51	0
2	136851	25.61	0
2	137408	25.71	0
2	137965	25.81	0
2	138522	25.91	0
2	139087	26.01	0
2	139644	26.11	0
2	140201	26.21	0
2	140758	26.31	0
2	141315	26.41	0
2	141872	26.51	0
2	142429	26.61	0
2	142986	26.71	0
2	143543	26.81	0
2	144100	26.91	0
2	144665	27.01	0
2	145222	27.11	0
2	145779	27.21	0
2	146336	27.31	0
2	146893	27.41	0
2	147450	27.51	0
2	148007	27.61	0
2	148564	27.71	0
2	149121	27.81	0
2	149678	27.91	0
2	150243	28.01	0
2	150800	28.11	0
2	151357	28.21	0
2	151914	28.31	0
2	152471	28.41	0
2	153028	28.51	0
2	153585	28.61	0
2	154142	28.71	0
2	154699	28.81	0
2	155256	28.91	0
2	155821	29.01	0
2	156378	29.11	0
2	156935	29.21	0
2	157492	29.31	0
2	158049	29.41	0
2	158606	29.51	0
2	159163	29.61	0
2	159720	29.71	0
2	160277	29.81	0
2	160834	29.91	0
2	161399	30.01	0
2	161956	30.11	0
2	162513	30.21	0
2	163070	30.31	0
2	163627	30.41	0
2	164184	30.51	0
2	164741	30.61	0
2	165298	30.71	0
2	165855	30.81	0
2	166412	30.91	0
2	166977	31.01	0
2	167534	31.11	0
2	168091	31.21	0
2	168648	31.31	0
2	169205	31.41	0
2	169762	31.51	0
2	170319	31.61	0
2	170876	31.71	0
2	171433	31.81	0
2	171990	31.91	0
2	172555	32.01	0
2	173112	32.11	0
2	173669	32.21	0
2	174226	32.31	0
2	174783	32.41	0
2	175340	32.51	0
2	175897	32.61	0
2	176454	32.71	0
2	177011	32.81	0
2	177568	32.91	0
2	178133	33.01	0
2	178690	33.11	0
2	179247	33.21	0
2	179804	33.31	0
10	5056	2	0
10	10624	3	0
10	16192	4	0
10	21761	5	0
10	27338	6	0
10	32916	7	0
10	38494	8	0
10	44072	9	0
10	49650	10	0
10	55228	11	0
10	60806	12	0
10	66384	13	0
10	71962	14	0
10	77540	15	0
10	83118	16	0
10	88696	17	0
10	94274	18	0
10	99852	19	0
10	105430	20	0
10	111008	21	0
10	116586	22	0
10	122164	23	0
10	127742	24	0
10	133320	25	0
10	138898	26	0
10	144476	27	0
10	150054	28	0
10	155632	29	0
10	161210	30	0
10	166788	31	0
10	172366	32	0
10	177944	33	0
9	5056	2	0.022755747372
9	10624	3	0.0262491856
9	16192	4	0.0262491856
9	21761	5	0.0262491856
9	27338	6	0.026262184005
9	32916	7	0.026249169954
9	38494	8	0.026249155171
9	44072	9	0.026249162229
9	49650	10	0.026249181034
9	55228	11	0.026249193079
9	60806	12	0.026249182587
9	66384	13	0.026249167145
9	71962	14	0.026249171721
9	77540	15	0.026249190053
9	83118	16	0.026249200105
9	88696	17	0.026249188199
9	94274	18	0.026249171813
9	99852	19	0.026249175368
9	105430	20	0.026249192918
9	111008	21	0.026249202018
9	116586	22	0.026262189362
9	122164	23	0.026249172402
9	127742	24	0.026249175381
9	133320	25	0.026249192395
9	138898	26	0.026249200971
9	144476	27	0.026249187993
9	150054	28	0.026249170857
9	155632	29	0.026249173639
9	161210	30	0.026249190426
9	166788	31	0.026249108192
9	172366	32	0.026248229579
9	177944	33	0.026259155068
8	5056	2	0
8	10624	3	0
8	16192	4	0
8	21761	5	0
8	27338	6	0
8	32916	7	0
8	38494	8	0
8	44072	9	0
8	49650	10	0
8	55228	11	0
8	60806	12	0
8	66384	13	0
8	71962	14	0
8	77540	15	0
8	83118	16	0
8	88696	17	0
8	94274	18	0
8	99852	19	0
8	105430	20	0
8	111008	21	0
8	116586	22	0
8	122164	23	0
8	127742	24	0
8	133320	25	0
8	138898	26	0
8	144476	27	0
8	150054	28	0
8	155632	29	0
8	161210	30	0
8	166788	31	0
8	172366	32	0
8	177944	33	0
29	233	1.11	0
29	789	1.21	-1.2595825330664e-06
29	1345	1.31	-1.2296821964242e-06
29	1901	1.41	-1.1833527889848e-06
29	2457	1.51	-1.124429032302e-06
29	3013	1.61	-1.056271792379e-06
29	3569	1.71	-9.817944965107e-07
29	4125	1.81	-9.0349264780798e-07
29	4681	1.91	-8.2347535453664e-07
29	5245	2.01	-7.4349811171714e-07
29	5801	2.11	-6.6499554321808e-07
29	6357	2.21	-5.8911421575658e-07
29	6913	2.31	-5.1674434899951e-07
29	7469	2.41	-4.4855052095727e-07
29	8025	2.51	-3.8500072150782e-07
29	8581	2.61	-3.2639378105159e-07
29	9137	2.71	-2.7288460870523e-07
29	9693	2.81	-2.2450765698068e-07
29	10249	2.91	-1.8119822470908e-07
29	10813	3.01	-1.4281164141039e-07
29	11369	3.11	-1.0914040103671e-07
29	11925	3.21	-7.992925588951e-08
29	12481	3.31	-5.4888541001219e-08
29	13037	3.41	-3.3705718749388e-08
29	13593	3.51	-1.6055088281064e-08
29	14149	3.61	-1.6061318319771e-09
29	14705	3.71	9.9696140409833e-09
29	15261	3.81	1.8992923855876e-08
29	15817	3.91	2.5772653771128e-08
29	16381	4.01	3.0602286642534e-08
29	16937	4.11	3.3757171706839e-08
29	17493	4.21	3.5493001178111e-08
29	18049	4.31	3.6044697537818e-08
29	18605	4.41	3.5625936618544e-08
29	19161	4.51	3.4429092750088e-08
29	19717	4.61	3.2625732728775e-08
29	20273	4.71	3.03671319557e-08
29	20829	4.81	2.7785252711965e-08
29	21385	4.91	2.4993811962304e-08
29	21950	5.01	2.2089478193266e-08
29	22507	5.11	1.9153313530751e-08
29	23064	5.21	0.34733991909581
29	23621	5.31	0.68310171749142
29	24178	5.41	0.99698687729696
29	24735	5.51	1.2801412035987
29	25292	5.61	1.5
29	25849	5.71	1.5
29	26406	5.81	1.5
29	26963	5.91	1.5
29	27528	6.01	1.5
29	28085	6.11	1.5
29	28642	6.21	1.5
29	29199	6.31	1.5
29	29756	6.41	1.5
29	30313	6.51	1.5
29	30870	6.61	1.4355671703253
29	31427	6.71	1.1707411692871
29	31984	6.81	0.87004292298174
29	32541	6.91	0.54082466945009
29	33106	7.01	0.19068378284302
29	33663	7.11	-0.17266336295049
29	34220	7.21	-0.54150449162778
29	34777	7.31	-0.90825039899341
29	35334	7.41	-1.2655487047065
29	35891	7.51	-1.4965029161479
29	36448	7.61	-1.5005046734216
29	37005	7.71	-1.5038752582316
29	37562	7.81	-1.5067125992858
29	38119	7.91	-1.5090991556169
29	38684	8.01	-1.5111044054101
29	39241	8.11	-1.5127869275868
29	39798	8.21	-1.5141961438176
29	40355	8.31	-1.5153737772388
29	40912	8.41	-1.5163550746855
29	41469	8.51	-1.5171698314093
29	42026	8.61	-1.5178432507289
29	42583	8.71	-1.5183966656522
29	43140	8.81	-1.518848145011
29	43697	8.91	-1.5192130029093
29	44262	9.01	-1.5195042271777
29	44819	9.11	-1.5197328399368
29	45376	9.21	-1.5199082012197
29	45933	9.31	-1.5200382648058
29	46490	9.41	-1.5201297939227
29	47047	9.51	-1.5201885308666
29	47604	9.61	-1.1108272910314
29	48161	9.71	-0.67606654965563
29	48718	9.81	-0.23337927583486
29	49275	9.91	0.20671966882106
29	49840	10.01	0.63450461267421
29	50397	10.11	1.0411079471533
29	50954	10.21	1.4185787376981
29	51511	10.31	1.5051810946735
29	52068	10.41	1.509061511718
29	52625	10.51	1.5122784653394
29	53182	10.61	1.5149362111309
29	53739	10.71	1.5171225914007
29	54296	10.81	1.5189116574996
29	54853	10.91	1.520365866206
29	55418	11.01	1.5215379204632
29	55975	11.11	1.5
29	56532	11.21	1.5
29	57089	11.31	1.5
29	57646	11.41	1.5
29	58203	11.51	1.5
29	58760	11.61	1.5
29	59317	11.71	1.5
29	59874	11.81	1.5
29	60431	11.91	1.4661362194405
29	60996	12.01	1.0843662500426
29	61553	12.11	0.67909625198278
29	62110	12.21	0.26064143907517
29	62667	12.31	-0.161136362265
29	63224	12.41	-0.57692378222947
29	63781	12.51	-0.97804243743201
29	64338	12.61	-1.3565266156616
29	64895	12.71	-1.496073250588
29	65452	12.81	-1.5001428760886
29	66009	12.91	-1.5035702575172
29	66574	13.01	-1.5064550562651
29	67131	13.11	-1.5088811931664
29	67688	13.21	-1.5109193802308
29	68245	13.31	-1.5126292382232
29	68802	13.41	-1.5140610688969
29	69359	13.51	-1.5152573390942
29	69916	13.61	-1.5162539243179
29	70473	13.71	-1.5170811513932
29	71030	13.81	-1.5177646732209
29	71587	13.91	-1.5183262031169
29	72152	14.01	-1.5187841316618
29	72709	14.11	-1.5191540451826
29	73266	14.21	-1.5194491618277
29	73823	14.31	-1.5196806985632
29	74380	14.41	-1.519858180227
29	74937	14.51	-1.2337485795052
29	75494	14.61	-0.82408917061648
29	76051	14.71	-0.39934044525237
29	76608	14.81	0.030181122876512
29	77165	14.91	0.45476250502945
29	77730	15.01	0.86537805534921
29	78287	15.11	1.2537641123813
29	78844	15.21	1.5028529217908
29	79401	15.31	1.5070011477756
29	79958	15.41	1.5104465815227
29	80515	15.51	1.5132997097152
29	81072	15.61	1.5156535889916
29	81629	15.71	1.5175866372051
29	82186	15.81	1.519164970269
29	82743	15.91	1.5
29	83308	16.01	1.5
29	83865	16.11	1.5
29	84422	16.21	1.5
29	84979	16.31	1.5
29	85536	16.41	1.5
29	86093	16.51	1.5
29	86650	16.61	1.5
29	87207	16.71	1.5
29	87764	16.81	1.5
29	88321	16.91	1.5
29	88886	17.01	1.1870092778501
29	89443	17.11	0.77883980815663
29	90000	17.21	0.35622856858628
29	90557	17.31	-0.07066163365901
29	91114	17.41	-0.49225357459591
29	91671	17.51	-0.89964017358725
29	92228	17.61	-1.2846599363056
29	92785	17.71	-1.4944585983891
29	93342	17.81	-1.49869312907
29	93899	17.91	-1.5022644119867
29	94464	18.01	-1.5052753182487
29	95021	18.11	-1.5078124532073
29	95578	18.21	-1.5099487764229
29	96135	18.31	-1.5117457924357
29	96692	18.41	-1.5132553837405
29	97249	18.51	-1.5145213453195
29	97806	18.61	-1.5155806701076
29	98363	18.71	-1.5164646264727
29	98920	18.81	-1.5171996619216
29	99477	18.91	-1.5178081615278
29	100042	19.01	-1.5183090848335
29	100599	19.11	-1.5187185010336
29	101156	19.21	-1.5190500389711
29	101713	19.31	-1.5193152657417
29	102270	19.41	-1.5195240054349
29	102827	19.51	-1.198524616291
29	103384	19.61	-0.78965625773888
29	103941	19.71	-0.36617030890406
29	104498	19.81	0.061724025053428
29	105055	19.91	0.48440822547728
29	105620	20.01	0.89293900029601
29	106177	20.11	1.2791235967764
29	106734	20.21	1.5033608182437
29	107291	20.31	1.5074389934217
29	107848	20.41	1.5108232862713
29	108405	20.51	1.5136228674377
29	108962	20.61	1.5159296860394
29	109519	20.71	1.5
29	110076	20.81	1.5
29	110633	20.91	1.5
29	111198	21.01	1.5
29	111755	21.11	1.5
29	112312	21.21	1.5
29	112869	21.31	1.5
29	113426	21.41	1.5
29	113983	21.51	1.5
29	114540	21.61	1.5
29	115097	21.71	1.5
29	115654	21.81	1.5
29	116211	21.91	1.5
29	116776	22.01	1.2011453446277
29	117333	22.11	0.79270541476131
29	117890	22.21	0.36963846434577
29	118447	22.31	-0.05785127935361
29	119004	22.41	-0.48015013728042
29	119561	22.51	-0.88831928206966
29	120118	22.61	-1.2741698887295
29	120675	22.71	-1.4931798130788
29	121232	22.81	-1.4974654704764
29	121789	22.91	-1.5010870949651
29	122354	23.01	-1.5041474696394
29	122911	23.11	-1.5067331220131
29	123468	23.21	-1.5089169442795
29	124025	23.31	-1.5107603839825
29	124582	23.41	-1.512315276619
29	125139	23.51	-1.5136253796186
29	125696	23.61	-1.5147276571406
29	126253	23.71	-1.5156533568245
29	126810	23.81	-1.5164289127411
29	127367	23.91	-1.5170767030678
29	127932	24.01	-1.5176156862602
29	128489	24.11	-1.5180619355402
29	129046	24.21	-1.5184290882389
29	129603	24.31	-1.5187287237949
29	130160	24.41	-1.5189706819414
29	130717	24.51	-1.1932270419243
29	131274	24.61	-0.78449225409063
29	131831	24.71	-0.36120386874387
29	132388	24.81	0.066443616856915
29	132945	24.91	0.48884464172801
29	133510	25.01	0.89706720384106
29	134067	25.11	1.2829282704038
29	134624	25.21	1.5
29	135181	25.31	1.5
29	135738	25.41	1.5
29	136295	25.51	1.5
29	136852	25.61	1.5
29	137409	25.71	1.5
29	137966	25.81	1.5
29	138523	25.91	1.5
29	139088	26.01	1.5
29	139645	26.11	1.5
29	140202	26.21	1.5
29	140759	26.31	1.5
29	141316	26.41	1.5
29	141873	26.51	1.5
29	142430	26.61	1.5
29	142987	26.71	1.5
29	143544	26.81	1.5
29	144101	26.91	1.5
[...]
123	87835	16.869559267363	0.100000081708
123	88392	16.96955934927	0.100000081907
123	88957	17.069559431379	0.100000082109
123	89514	17.169559513688	0.100000082309
123	90071	17.269559596187	0.100000082499
123	90628	17.369559678861	0.100000082674
123	91185	17.469559761687	0.100000082826
123	91742	17.569559844634	0.100000082947
123	92299	17.669559927671	0.100000083037
123	92856	17.769560010761	0.10000008309
123	93413	17.869560093865	0.100000083104
123	93970	17.969560176952	0.100000083087
123	94535	18.069560259991	0.100000083039
123	95092	18.16956034296	0.100000082969
123	95649	18.269560425838	0.100000082878
123	96206	18.369560508608	0.10000008277
123	96763	18.469560591255	0.100000082647
123	97320	18.569560673767	0.100000082512
123	97877	18.669560756134	0.100000082367
123	98434	18.769560838346	0.100000082212
123	98991	18.869560920392	0.100000082046
123	99548	18.969561002266	0.100000081874
123	100113	19.069561083961	0.100000081695
123	100670	19.169561165468	0.100000081507
123	101227	19.26956124678	0.100000081312
123	101784	19.369561327891	0.100000081111
123	102341	19.469561408798	0.100000080907
123	102898	19.569561489496	0.100000080698
123	103455	19.669561569987	0.100000080491
123	104012	19.769561650276	0.100000080289
123	104569	19.869561730381	0.100000080105
123	105126	19.969561810322	0.100000079941
123	105691	20.069561890135	0.100000079813
123	106248	20.169561969849	0.100000079714
123	106805	20.269562049503	0.100000079654
123	107362	20.369562129137	0.100000079634
123	107919	20.469562208783	0.100000079646
123	108476	20.569562288472	0.100000079689
123	109033	20.66956236823	0.100000079758
123	109590	20.769562448075	0.100000079845
123	110147	20.869562528029	0.100000079954
123	110704	20.969562608105	0.100000080076
123	111269	21.069562688315	0.10000008021
123	111826	21.169562768673	0.100000080358
123	112383	21.269562849187	0.100000080514
123	112940	21.369562929865	0.100000080678
123	113497	21.469563010717	0.100000080852
123	114054	21.569563091751	0.100000081034
123	114611	21.66956317297	0.100000081219
123	115168	21.769563254381	0.100000081411
123	115725	21.869563335993	0.100000081612
123	116282	21.969563417808	0.100000081815
123	116847	22.069563499829	0.100000082021
123	117404	22.169563582055	0.100000082226
123	117961	22.269563664477	0.100000082422
123	118518	22.36956374708	0.100000082603
123	119075	22.469563829842	0.100000082762
123	119632	22.569563912731	0.100000082889
123	120189	22.669563995718	0.100000082987
123	120746	22.769564078762	0.100000083044
123	121303	22.869564161826	0.100000083064
123	121860	22.969564244879	0.100000083053
123	122425	23.06956432789	0.100000083011
123	122982	23.169564410836	0.100000082946
123	123539	23.269564493697	0.100000082861
123	124096	23.369564576456	0.100000082759
123	124653	23.469564659098	0.100000082642
123	125210	23.569564741611	0.100000082513
123	125767	23.669564823982	0.100000082371
123	126324	23.769564906203	0.100000082221
123	126881	23.869564988265	0.100000082062
123	127438	23.96956507016	0.100000081895
123	128003	24.06956515188	0.10000008172
123	128560	24.169565233419	0.100000081539
123	129117	24.269565314768	0.100000081349
123	129674	24.369565395924	0.100000081156
123	130231	24.469565476878	0.100000080954
123	130788	24.569565557628	0.10000008075
123	131345	24.669565638176	0.100000080548
123	131902	24.769565718528	0.100000080352
123	132459	24.8695657987	0.100000080172
123	133016	24.969565878716	0.100000080016
123	133581	25.069565958606	0.10000007989
123	134138	25.169566038408	0.100000079802
123	134695	25.269566118155	0.100000079747
123	135252	25.369566197884	0.100000079729
123	135809	25.469566277633	0.100000079749
123	136366	25.569566357428	0.100000079795
123	136923	25.669566437295	0.100000079867
123	137480	25.769566517257	0.100000079962
123	138037	25.86956659733	0.100000080073
123	138594	25.969566677526	0.100000080196
123	139159	26.069566757861	0.100000080335
123	139716	26.169566838347	0.100000080486
123	140273	26.269566918992	0.100000080645
123	140830	26.369566999804	0.100000080812
123	141387	26.469567080792	0.100000080988
123	141944	26.569567161964	0.100000081172
123	142501	26.669567243324	0.10000008136
123	143058	26.769567324878	0.100000081554
123	143615	26.869554406633	0.099987081755
123	144172	26.969554488592	0.100000081959
123	144737	27.06955457076	0.100000082168
123	145294	27.169554653135	0.100000082375
123	145851	27.269554735708	0.100000082573
123	146408	27.369554818464	0.100000082756
123	146965	27.469554901378	0.100000082914
123	147522	27.569554984424	0.100000083046
123	148079	27.669555067565	0.100000083141
123	148636	27.769555150768	0.100000083203
123	149193	27.86955523399	0.100000083222
123	149750	27.969555317205	0.100000083215
123	150315	28.069555400379	0.100000083174
123	150872	28.169555483492	0.100000083113
123	151429	28.269555566521	0.100000083029
123	151986	28.369555649451	0.10000008293
123	152543	28.469555732263	0.100000082812
123	153100	28.569555814951	0.100000082688
123	153657	28.669555897499	0.100000082548
123	154214	28.769555979898	0.100000082399
123	154771	28.869556062141	0.100000082243
123	155328	28.969556144218	0.100000082077
123	155893	29.069556226124	0.100000081906
123	156450	29.169556307848	0.100000081724
123	157007	29.269556389388	0.10000008154
123	157564	29.369556470736	0.100000081348
123	158121	29.469556551883	0.100000081147
123	158678	29.569556632829	0.100000080946
123	159235	29.669556713576	0.100000080747
123	159792	29.769556794128	0.100000080552
123	160349	29.869556874505	0.100000080377
123	160906	29.96955695473	0.100000080225
123	161471	30.06955703483	0.1000000801
123	162028	30.169557114878	0.100000080048
123	162585	30.269557195151	0.100000080273
123	163142	30.369557276167	0.100000081016
123	163699	30.469557358651	0.100000082484
123	164256	30.569557443493	0.100000084842
123	164813	30.669557531717	0.100000088224
123	165370	30.769557624413	0.100000092696
123	165927	30.869557722713	0.1000000983
123	166484	30.969557827788	0.100000105075
123	167049	31.069557940842	0.100000113054
123	167606	31.169558063093	0.100000122251
123	168163	31.26955819578	0.100000132687
123	168720	31.369558340152	0.100000144372
123	169277	31.469558497465	0.100000157313
123	169834	31.569558668986	0.100000171521
123	170391	31.669558855979	0.100000186993
123	170948	31.769559059703	0.100000203724
123	171505	31.86955928141	0.100000221707
123	172062	31.969559522328	0.100000240918
123	172627	32.06955978367	0.100000261342
123	173184	32.169560066619	0.100000282949
123	173741	32.269560372322	0.100000305703
123	174298	32.369560701888	0.100000329566
123	174855	32.469561056381	0.100000354493
123	175412	32.569561436819	0.100000380438
123	175969	32.669561844172	0.100000407353
123	176526	32.769562279364	0.100000435192
123	177083	32.869562743267	0.100000463903
123	177640	32.969563236711	0.100000493444
123	178205	33.069563760485	0.100000523774
123	178762	33.169564315335	0.10000055485
123	179319	33.269564901973	0.100000586638
124	1112	1.299591442381	0.10000008144
124	1668	1.399591523821	0.10000008144
124	2224	1.499591605261	0.10000008144
124	2780	1.599591686701	0.10000008144
124	3336	1.699591768141	0.10000008144
124	3892	1.799591849581	0.10000008144
124	4448	1.899591931021	0.10000008144
124	5004	1.999592012461	0.10000008144
124	5568	2.099592093901	0.10000008144
124	6124	2.199592175341	0.10000008144
124	6680	2.299592256781	0.10000008144
124	7236	2.399592338221	0.10000008144
124	7792	2.499592419661	0.10000008144
124	8348	2.599592501101	0.10000008144
124	8904	2.699592582541	0.10000008144
124	9460	2.799592663981	0.10000008144
124	10016	2.899592745421	0.10000008144
124	10572	2.999592826861	0.10000008144
124	11136	3.099592908301	0.10000008144
124	11692	3.199592989741	0.10000008144
124	12248	3.299593071181	0.10000008144
124	12804	3.399593152621	0.10000008144
124	13360	3.499593234061	0.10000008144
124	13916	3.599593315501	0.10000008144
124	14472	3.699593396941	0.10000008144
124	15028	3.799593478381	0.10000008144
124	15584	3.899593559821	0.10000008144
124	16140	3.999593641261	0.10000008144
124	16704	4.099593722701	0.10000008144
124	17260	4.199593804141	0.10000008144
124	17816	4.299593885581	0.10000008144
124	18372	4.399593967021	0.10000008144
124	18928	4.499594048461	0.10000008144
124	19484	4.599594129901	0.10000008144
124	20040	4.699594211341	0.10000008144
124	20596	4.799594292781	0.10000008144
124	21152	4.899594374221	0.10000008144
124	21708	4.999594455661	0.10000008144
124	22273	5.099594537101	0.10000008144
124	22830	5.199594618541	0.10000008144
124	23387	5.299594699985	0.100000081444
124	23944	5.399594781441	0.100000081456
124	24495	5.499594862922	0.100000081481
124	25052	5.599594944447	0.100000081525
124	25609	5.69959502604	0.100000081593
124	26166	5.799595107728	0.100000081688
124	26723	5.899595189533	0.100000081805
124	27280	5.999595271473	0.10000008194
124	27845	6.099595353564	0.100000082091
124	28402	6.199595435824	0.10000008226
124	28959	6.299595518262	0.100000082438
124	29516	6.399595600888	0.100000082626
124	30073	6.499595683712	0.100000082824
124	30630	6.599595766741	0.100000083029
124	31187	6.699595849981	0.10000008324
124	31744	6.799595933435	0.100000083454
124	32301	6.899596017102	0.100000083667
124	32858	6.999596100972	0.10000008387
124	33423	7.099596185035	0.100000084063
124	33980	7.199596269269	0.100000084234
124	34537	7.299596353652	0.100000084383
124	35094	7.399596438153	0.100000084501
124	35651	7.499596522738	0.100000084585
124	36208	7.599596607371	0.100000084633
124	36765	7.69959669202	0.100000084649
124	37322	7.799596776654	0.100000084634
124	37879	7.899596861242	0.100000084588
124	38436	7.999596945763	0.100000084521
124	39001	8.0995970302	0.100000084437
124	39558	8.199597114533	0.100000084333
124	40115	8.299597198748	0.100000084215
124	40672	8.399597282833	0.100000084085
124	41229	8.499597366774	0.100000083941
124	41786	8.599597450564	0.10000008379
124	42343	8.699597534193	0.100000083629
124	42900	8.799597617655	0.100000083462
124	43457	8.899597700936	0.100000083281
124	44014	8.999597784032	0.100000083096
124	44579	9.099597866935	0.100000082903
124	45136	9.199597949641	0.100000082706
124	45693	9.299598032141	0.1000000825
124	46256	9.399598114431	0.10000008229
124	46813	9.499598196503	0.100000082072
124	47370	9.59959827835	0.100000081847
124	47927	9.699598359972	0.100000081622
124	48484	9.799598441373	0.100000081401
124	49041	9.899598522564	0.100000081191
124	49598	9.999598603564	0.100000081
124	50163	10.099598684405	0.100000080841
124	50720	10.199598765116	0.100000080711
124	51277	10.299598845736	0.10000008062
124	51834	10.399598926303	0.100000080567
124	52391	10.499599006857	0.100000080554
124	52948	10.599599087426	0.100000080569
124	53505	10.699599168037	0.100000080611
124	54062	10.799599248716	0.100000080679
124	54619	10.89959932948	0.100000080764
124	55176	10.999599410348	0.100000080868
124	55741	11.099599491335	0.100000080987
124	56298	11.199599572451	0.100000081116
124	56855	11.299599653709	0.100000081258
124	57412	11.399599735121	0.100000081412
124	57969	11.499599816693	0.100000081572
124	58526	11.599599898432	0.100000081739
124	59083	11.699599980349	0.100000081917
124	59640	11.799600062448	0.100000082099
124	60197	11.899600144734	0.100000082286
124	60748	11.999600227213	0.100000082479
124	61313	12.099600309886	0.100000082673
124	61870	12.199600392751	0.100000082865
124	62427	12.299600475794	0.100000083043
124	62984	12.399600558995	0.100000083201
124	63541	12.499600642332	0.100000083337
124	64098	12.599600725773	0.100000083441
124	64655	12.699600809281	0.100000083508
124	65212	12.799600892818	0.100000083537
124	65769	12.899600976352	0.100000083534
124	66326	12.99960105985	0.100000083498
124	66891	13.099601143283	0.100000083433
124	67448	13.199601226633	0.10000008335
124	68005	13.299601309879	0.100000083246
124	68562	13.399601393004	0.100000083125
124	69119	13.499601475996	0.100000082992
124	69676	13.599601558842	0.100000082846
124	70233	13.699601641532	0.10000008269
124	70790	13.799601724055	0.100000082523
124	71353	13.899601806403	0.100000082348
124	71910	13.999601888569	0.100000082166
124	72475	14.099601970545	0.100000081976
124	73032	14.199602052324	0.100000081779
124	73589	14.2996021339	0.100000081576
124	74146	14.399602215265	0.100000081365
124	74703	14.499602296415	0.10000008115
124	75260	14.599602377346	0.100000080931
124	75817	14.699602458062	0.100000080716
124	76374	14.799602538568	0.100000080506
124	76931	14.899602618886	0.100000080318
124	77488	14.999602699039	0.100000080153
124	78053	15.099602779056	0.100000080017
124	78610	15.199602858972	0.100000079916
124	79167	15.299602938826	0.100000079854
124	79724	15.399603018659	0.100000079833
124	80281	15.4996030985	0.100000079841
124	80838	15.599603178381	0.100000079881
124	81395	15.699603258325	0.100000079944
124	81952	15.799603338355	0.10000008003
124	82509	15.899603418486	0.100000080131
124	83066	15.999603498735	0.100000080249
124	83631	16.099603579116	0.100000080381
124	84188	16.199590659639	0.099987080523
124	84745	16.299590740314	0.100000080675
124	85302	16.399590821153	0.100000080839
124	85859	16.499590902161	0.100000081008
124	86416	16.599590983344	0.100000081183
124	86973	16.69959106471	0.100000081366
124	87530	16.799591146265	0.100000081555
124	88087	16.899591228015	0.10000008175
124	88644	16.999591309965	0.10000008195
124	89203	17.099591392118	0.100000082153
124	89760	17.199591474471	0.100000082353
124	90317	17.299591557011	0.10000008254
124	90874	17.399591639723	0.100000082712
124	91431	17.49959172258	0.100000082857
124	91988	17.599591805554	0.100000082974
124	92545	17.699591888609	0.100000083055
124	93102	17.79959197171	0.100000083101
124	93659	17.899592054817	0.100000083107
124	94216	17.999592137898	0.100000083081
124	94781	18.099592220928	0.10000008303
124	95338	18.199592303882	0.100000082954
124	95895	18.299592386741	0.100000082859
124	96452	18.399592469489	0.100000082748
124	97009	18.49959255211	0.100000082621
124	97566	18.599592634595	0.100000082485
124	98123	18.69959271693	0.100000082335
124	98680	18.799592799108	0.100000082178
124	99243	18.899592881118	0.10000008201
124	99800	18.999592962954	0.100000081836
124	100365	19.099593044607	0.100000081653
124	100922	19.19959312607	0.100000081463
124	101479	19.299593207336	0.100000081266
124	102036	19.399593288401	0.100000081065
124	102593	19.499593369258	0.100000080857
124	103150	19.599593449905	0.100000080647
124	103707	19.699593530345	0.10000008044
124	104264	19.799593610585	0.10000008024
124	104821	19.899593690643	0.100000080058
124	105378	19.999593770546	0.100000079903
124	105943	20.099593850326	0.10000007978
124	106500	20.199593930015	0.100000079689
124	107057	20.299594009653	0.100000079638
124	107614	20.399594089279	0.100000079626
124	108171	20.499594168924	0.100000079645
124	108728	20.599594248618	0.100000079694
124	109285	20.699594328386	0.100000079768
124	109842	20.799594408247	0.100000079861
124	110399	20.899594488221	0.100000079974
124	110956	20.999594568319	0.100000080098
124	111521	21.099594648555	0.100000080236
124	112078	21.199594728942	0.100000080387
124	112635	21.299594809486	0.100000080544
124	113192	21.399594890196	0.10000008071
124	113749	21.499594971085	0.100000080889
124	114306	21.599595052156	0.100000081071
124	114863	21.699595133415	0.100000081259
124	115420	21.799595214868	0.100000081453
124	115977	21.899595296523	0.100000081655
124	116528	21.99959537838	0.100000081857
124	117093	22.099595460447	0.100000082067
124	117650	22.199595542717	0.10000008227
124	118207	22.299595625183	0.100000082466
124	118764	22.399595707824	0.100000082641
124	119321	22.49959579062	0.100000082796
124	119878	22.599595873539	0.100000082919
124	120435	22.699595956545	0.100000083006
124	120992	22.7995960396	0.100000083055
124	121549	22.899596122669	0.100000083069
124	122106	22.999596205719	0.10000008305
124	122671	23.099596288722	0.100000083003
124	123228	23.199596371655	0.100000082933
124	123785	23.299596454499	0.100000082844
124	124342	23.399596537238	0.100000082739
124	124899	23.499596619855	0.100000082617
124	125456	23.599596702341	0.100000082486
124	126013	23.699596784684	0.100000082343
124	126570	23.799596866873	0.100000082189
124	127127	23.8995969489	0.100000082027
124	127684	23.999597030759	0.100000081859
124	128255	24.09959711244	0.100000081681
124	128812	24.199597193938	0.100000081498
124	129369	24.299597275244	0.100000081306
124	129926	24.399597356354	0.10000008111
124	130483	24.499597437261	0.100000080907
124	131040	24.599597517962	0.100000080701
124	131597	24.699597598461	0.100000080499
124	132154	24.799597678766	0.100000080305
124	132711	24.899597758896	0.10000008013
124	133268	24.999597838876	0.10000007998
124	133833	25.099597918736	0.10000007986
124	134390	25.199597998515	0.100000079779
124	134947	25.299598078247	0.100000079732
124	135504	25.399598157972	0.100000079725
124	136061	25.499598237722	0.10000007975
124	136618	25.599598317523	0.100000079801
124	137175	25.699598397404	0.100000079881
124	137732	25.799598477382	0.100000079978
124	138289	25.899598557475	0.100000080093
124	138846	25.999598637694	0.100000080219
124	139411	26.099598718058	0.100000080364
124	139968	26.199598798573	0.100000080515
124	140525	26.29959887925	0.100000080677
124	141082	26.399598960096	0.100000080846
124	141639	26.49959904112	0.100000081024
124	142196	26.599599122329	0.100000081209
124	142753	26.699599203728	0.100000081399
124	143310	26.799599285324	0.100000081596
124	143861	26.899599367121	0.100000081797
124	144418	26.999599449125	0.100000082004
124	144983	27.099599531339	0.100000082214
124	145540	27.199599613759	0.10000008242
124	146097	27.299599696376	0.100000082617
124	146654	27.39959977917	0.100000082794
124	147211	27.499599862119	0.100000082949
124	147768	27.599599945193	0.100000083074
124	148325	27.699600028355	0.100000083162
124	148882	27.799600111569	0.100000083214
124	149439	27.899600194798	0.100000083229
124	149996	27.999600278009	0.100000083211
124	150561	28.099600361177	0.100000083168
124	151118	28.199600444277	0.1000000831
124	151675	28.299600527291	0.100000083014
124	152232	28.399600610199	0.100000082908
124	152789	28.49960069299	0.100000082791
124	153346	28.599600775652	0.100000082662
124	153903	28.699600858171	0.100000082519
124	154460	28.79960094054	0.100000082369
124	155017	28.89960102275	0.10000008221
124	155574	28.999601104792	0.100000082042
124	156139	29.099601186659	0.100000081867
124	156702	29.199601268344	0.100000081685
124	157259	29.299601349844	0.1000000815
124	157816	29.399601431146	0.100000081302
124	158373	29.499601512248	0.100000081102
124	158930	29.599601593147	0.100000080899
124	159487	29.699601673846	0.100000080699
124	160044	29.799601754353	0.100000080507
124	160601	29.89960183469	0.100000080337
124	161158	29.99960191488	0.10000008019
124	161723	30.099601994951	0.100000080071
124	162274	30.199602074988	0.100000080037
124	162831	30.299602155275	0.100000080287
124	163388	30.399602236349	0.100000081074
124	163945	30.499602318948	0.100000082599
124	164502	30.599602403977	0.100000085029
124	165059	30.699602492473	0.100000088496
124	165616	30.799602585531	0.100000093058
124	166173	30.899602684296	0.100000098765
124	166730	30.999602789945	0.100000105649
124	167295	31.099602903685	0.10000011374
124	167852	31.199603026744	0.100000123059
124	168409	31.299603160362	0.100000133618
124	168966	31.399603305793	0.100000145431
124	169523	31.499603464301	0.100000158508
124	170080	31.599590637152	0.099987172851
124	170637	31.699590825614	0.100000188462
124	171194	31.79959103095	0.100000205336
124	171751	31.899591254413	0.100000223463
124	172308	31.999591497235	0.100000242822
124	172873	32.099591760631	0.100000263396
124	173430	32.199592045785	0.100000285154
124	173987	32.299592353843	0.100000308058
124	174544	32.399592685914	0.100000332071
124	175101	32.499593043063	0.100000357149
124	175658	32.599593426308	0.100000383245
124	176215	32.699593836618	0.10000041031
124	176772	32.799594274917	0.100000438299
124	177329	32.899594742077	0.10000046716
124	177886	32.999595238929	0.100000496852
124	178451	33.099595766262	0.100000527333
124	179008	33.199596324826	0.100000558564
124	179565	33.299596915328	0.100000590502
