file 1680544 1512143314                                         
version 2
run SinusoidalAccInjectionAttack-74-20171201-16:48:02-70951
attr CACCSpacing 20
attr attackAcc -10
attr attackPos 7
attr attackSpeed 150
attr attackStart 30
attr attacker 4
attr beaconInterval 0.1
attr configname SinusoidalAccInjectionAttack
attr controller 2
attr datetime 20171201-16:48:02
attr experiment SinusoidalAccInjectionAttack
attr fakeAcc "(4 == 4)"
attr fakePos "(4 == 2)"
attr fakeSpeed "(4 == 3)"
attr inifile omnetpp_74.ini
attr iterationvars "$attacker=4, $attackSpeed=150, $attackPos=7, $attackAcc=-10, $leaderSpeed=50, $controller=2, $CACCSpacing=20, $sController=\"PLOEG\", $attackStart=30, $0=2, $1=0.5, $nCars=8, $platoonSize=8, $nLanes=1, $beaconInterval=0.1, $priority=2, $packetSize=200, $ploegH=0.5, $leaderHeadway=1.2, $fakeSpeed=(4 == 3), $fakeAcc=(4 == 4), $fakePos=(4 == 2)"
attr iterationvarsf attacker=4,attackSpeed=150,attackPos=7,attackAcc=-10,leaderSpeed=50,controller=2,CACCSpacing=20,sController=PLOEG,attackStart=30,2,0.5,nCars=8,platoonSize=8,nLanes=1,beaconInterval=0.1,priority=2,packetSize=200,ploegH=0.5,leaderHeadway=1.2,fakeSpeed=(4_==_3),fakeAcc=(4_==_4),fakePos=(4_==_2)-
attr leaderHeadway 1.2
attr leaderSpeed 50
attr measurement "$attacker=4, $attackSpeed=150, $attackPos=7, $attackAcc=-10, $leaderSpeed=50, $controller=2, $CACCSpacing=20, $sController=\"PLOEG\", $attackStart=30, $0=2, $1=0.5, $nCars=8, $platoonSize=8, $nLanes=1, $beaconInterval=0.1, $priority=2, $packetSize=200, $ploegH=0.5, $leaderHeadway=1.2, $fakeSpeed=(4 == 3), $fakeAcc=(4 == 4), $fakePos=(4 == 2)"
attr nCars 8
attr nLanes 1
attr network scenario
attr packetSize 200
attr platoonSize 8
attr ploegH 0.5
attr priority 2
attr processid 70951
attr repetition 4
attr replication #4
attr resultdir results
attr runnumber 74
attr sController "\"PLOEG\""
attr seedset 4
param **.coreDebug false
param **.debug false
param **.headway 0.1s
param **.numberOfCars 8
param **.numberOfCarsPerPlatoon 8
param **.numberOfLanes 1
param **.numericController 2
param **.traffic.nCars 8
param **.traffic.nLanes 1
param **.traffic.platoonInsertDistance 2m
param **.traffic.platoonInsertHeadway 0.5s
param **.traffic.platoonInsertSpeed 50kmph
param **.traffic.platoonInsertTime "1 s"
param **.traffic.platoonLeaderHeadway 1.2s
param **.traffic.platoonSize 8
param **.traffic.platooningVType "\"vtypeauto\""
param **.traffic_type "\"PlatoonsTrafficManager\""
param *.**.nic.mac1609_4.bitrate 6Mbps
param *.**.nic.mac1609_4.txPower 100mW
param *.**.nic.mac1609_4.useServiceChannel false
param *.**.nic.phy80211p.analogueModels "xmldoc(\"config.xml\")"
param *.**.nic.phy80211p.decider "xmldoc(\"config.xml\")"
param *.**.nic.phy80211p.maxTXPower 100mW
param *.**.nic.phy80211p.sensitivity -94dBm
param *.**.nic.phy80211p.thermalNoise -95dBm
param *.**.nic.phy80211p.usePropagationDelay true
param *.**.nic.phy80211p.useThermalNoise true
param *.annotations.draw false
param *.connectionManager.alpha 2.0
param *.connectionManager.carrierFrequency "5.890e9 Hz"
param *.connectionManager.pMax 100mW
param *.connectionManager.sat -94dBm
param *.connectionManager.sendDirect true
param *.manager.autoShutdown true
param *.manager.commandLine "\"sumo --remote-port $port --seed $seed --configuration-file $configFile\""
param *.manager.configFile "\"./sumocfg/freeway.sumo.cfg\""
param *.manager.host "\"localhost\""
param *.manager.margin 25
param *.manager.moduleDisplayString "\"\""
param *.manager.moduleName "\"node\""
param *.manager.moduleType "\"Car\""
param *.manager.updateInterval 0.01s
param *.node[*].appl.attackStart 30s
param *.node[*].appl.attackerType 4
param *.node[*].appl.simulationDuration "60 s"
param *.node[*].appl_type "\"SimplePlatooningApp\""
param *.node[*].helper.nCars 8
param *.node[*].helper.nLanes 1
param *.node[*].helper.platoonSize 8
param *.node[*].helper_type "\"PositionHelper\""
param *.node[*].mobility.x 0
param *.node[*].mobility.y 0
param *.node[*].mobility.z 1.895
param *.node[*].prot.attackStart 30s
param *.node[*].prot.attackerType 4
param *.node[*].prot.attackingNode 3
param *.node[*].prot.beaconingInterval 0.1s
param *.node[*].prot.fakeAcc "(4 == 4)"
param *.node[*].prot.fakePos "(4 == 2)"
param *.node[*].prot.fakeSpeed "(4 == 3)"
param *.node[*].prot.maliciousAcc "-10 mpss"
param *.node[*].prot.maliciousSpeed 150kmph
param *.node[*].prot.packetSize 200
param *.node[*].prot.priority 2
param *.node[*].prot.shiftX "7 m"
param *.node[*].prot.useControllerAcceleration true
param *.node[*].protocol_type "\"SimplePlatooningBeaconing\""
param *.node[*].scenario.accHeadway 0.1s
param *.node[*].scenario.caccC1 0.5
param *.node[*].scenario.caccOmegaN "0.2 Hz"
param *.node[*].scenario.caccSpacing 20m
param *.node[*].scenario.caccXi 1
param *.node[*].scenario.controller "\"PLOEG\""
param *.node[*].scenario.engineTau "0.5 s"
param *.node[*].scenario.leaderHeadway 1.2s
param *.node[*].scenario.leaderSpeed 50kmph
param *.node[*].scenario.ploegH 0.5s
param *.node[*].scenario.ploegKd 0.7
param *.node[*].scenario.ploegKp 0.2
param *.node[*].scenario.useRealisticEngine false
param *.node[*].scenario_type "\"SinusoidalScenario\""
param *.node[*].unicast.packetLossRate 0
param *.obstacles.debug false
param *.playgroundSizeX 65000m
param *.playgroundSizeY 25000m
param *.playgroundSizeZ 50m
param *.world.use2D false
param *.world.useTorus false

vector 0  scenario.node[0].appl  distance  ETV
vector 1  scenario.node[0].appl  relativeSpeed  ETV
vector 2  scenario.node[0].appl  nodeId  ETV
vector 6  scenario.node[0].appl  acceleration  ETV
vector 7  scenario.node[0].appl  controllerAcceleration  ETV
vector 3  scenario.node[0].appl  speed  ETV
vector 4  scenario.node[0].appl  posx  ETV
vector 5  scenario.node[0].appl  posy  ETV
vector 22  scenario.node[1].appl  distance  ETV
vector 23  scenario.node[1].appl  relativeSpeed  ETV
vector 24  scenario.node[1].appl  nodeId  ETV
vector 28  scenario.node[1].appl  acceleration  ETV
vector 29  scenario.node[1].appl  controllerAcceleration  ETV
vector 25  scenario.node[1].appl  speed  ETV
vector 26  scenario.node[1].appl  posx  ETV
vector 27  scenario.node[1].appl  posy  ETV
vector 44  scenario.node[2].appl  distance  ETV
vector 45  scenario.node[2].appl  relativeSpeed  ETV
vector 46  scenario.node[2].appl  nodeId  ETV
vector 50  scenario.node[2].appl  acceleration  ETV
vector 51  scenario.node[2].appl  controllerAcceleration  ETV
vector 47  scenario.node[2].appl  speed  ETV
vector 48  scenario.node[2].appl  posx  ETV
vector 49  scenario.node[2].appl  posy  ETV
vector 66  scenario.node[3].appl  distance  ETV
vector 67  scenario.node[3].appl  relativeSpeed  ETV
vector 68  scenario.node[3].appl  nodeId  ETV
vector 72  scenario.node[3].appl  acceleration  ETV
vector 73  scenario.node[3].appl  controllerAcceleration  ETV
vector 69  scenario.node[3].appl  speed  ETV
vector 70  scenario.node[3].appl  posx  ETV
vector 71  scenario.node[3].appl  posy  ETV
vector 88  scenario.node[4].appl  distance  ETV
vector 89  scenario.node[4].appl  relativeSpeed  ETV
vector 90  scenario.node[4].appl  nodeId  ETV
vector 94  scenario.node[4].appl  acceleration  ETV
vector 95  scenario.node[4].appl  controllerAcceleration  ETV
vector 91  scenario.node[4].appl  speed  ETV
vector 92  scenario.node[4].appl  posx  ETV
vector 93  scenario.node[4].appl  posy  ETV
vector 110  scenario.node[5].appl  distance  ETV
vector 111  scenario.node[5].appl  relativeSpeed  ETV
vector 112  scenario.node[5].appl  nodeId  ETV
vector 116  scenario.node[5].appl  acceleration  ETV
vector 117  scenario.node[5].appl  controllerAcceleration  ETV
vector 113  scenario.node[5].appl  speed  ETV
vector 114  scenario.node[5].appl  posx  ETV
vector 115  scenario.node[5].appl  posy  ETV
vector 132  scenario.node[6].appl  distance  ETV
vector 133  scenario.node[6].appl  relativeSpeed  ETV
vector 134  scenario.node[6].appl  nodeId  ETV
vector 138  scenario.node[6].appl  acceleration  ETV
vector 139  scenario.node[6].appl  controllerAcceleration  ETV
vector 135  scenario.node[6].appl  speed  ETV
vector 136  scenario.node[6].appl  posx  ETV
vector 137  scenario.node[6].appl  posy  ETV
vector 154  scenario.node[7].appl  distance  ETV
vector 155  scenario.node[7].appl  relativeSpeed  ETV
vector 156  scenario.node[7].appl  nodeId  ETV
vector 160  scenario.node[7].appl  acceleration  ETV
vector 161  scenario.node[7].appl  controllerAcceleration  ETV
vector 157  scenario.node[7].appl  speed  ETV
vector 158  scenario.node[7].appl  posx  ETV
vector 159  scenario.node[7].appl  posy  ETV
vector 102  scenario.node[4].prot  frontDelay  ETV
vector 100  scenario.node[4].prot  frontDelayId  ETV
vector 35  scenario.node[1].prot  leaderDelay  ETV
vector 33  scenario.node[1].prot  leaderDelayId  ETV
vector 36  scenario.node[1].prot  frontDelay  ETV
vector 34  scenario.node[1].prot  frontDelayId  ETV
vector 57  scenario.node[2].prot  leaderDelay  ETV
vector 55  scenario.node[2].prot  leaderDelayId  ETV
vector 79  scenario.node[3].prot  leaderDelay  ETV
vector 77  scenario.node[3].prot  leaderDelayId  ETV
vector 101  scenario.node[4].prot  leaderDelay  ETV
vector 99  scenario.node[4].prot  leaderDelayId  ETV
vector 123  scenario.node[5].prot  leaderDelay  ETV
vector 121  scenario.node[5].prot  leaderDelayId  ETV
vector 145  scenario.node[6].prot  leaderDelay  ETV
vector 143  scenario.node[6].prot  leaderDelayId  ETV
vector 167  scenario.node[7].prot  leaderDelay  ETV
vector 165  scenario.node[7].prot  leaderDelayId  ETV
vector 80  scenario.node[3].prot  frontDelay  ETV
vector 78  scenario.node[3].prot  frontDelayId  ETV
vector 146  scenario.node[6].prot  frontDelay  ETV
vector 144  scenario.node[6].prot  frontDelayId  ETV
vector 58  scenario.node[2].prot  frontDelay  ETV
vector 56  scenario.node[2].prot  frontDelayId  ETV
vector 124  scenario.node[5].prot  frontDelay  ETV
vector 122  scenario.node[5].prot  frontDelayId  ETV
vector 168  scenario.node[7].prot  frontDelay  ETV
vector 166  scenario.node[7].prot  frontDelayId  ETV
vector 8  scenario.node[0].prot  nodeId  ETV
vector 9  scenario.node[0].prot  busyTime  ETV
vector 10  scenario.node[0].prot  collisions  ETV
vector 30  scenario.node[1].prot  nodeId  ETV
vector 31  scenario.node[1].prot  busyTime  ETV
vector 32  scenario.node[1].prot  collisions  ETV
vector 52  scenario.node[2].prot  nodeId  ETV
vector 53  scenario.node[2].prot  busyTime  ETV
vector 54  scenario.node[2].prot  collisions  ETV
vector 74  scenario.node[3].prot  nodeId  ETV
vector 75  scenario.node[3].prot  busyTime  ETV
vector 76  scenario.node[3].prot  collisions  ETV
vector 96  scenario.node[4].prot  nodeId  ETV
vector 97  scenario.node[4].prot  busyTime  ETV
vector 98  scenario.node[4].prot  collisions  ETV
vector 118  scenario.node[5].prot  nodeId  ETV
vector 119  scenario.node[5].prot  busyTime  ETV
vector 120  scenario.node[5].prot  collisions  ETV
vector 140  scenario.node[6].prot  nodeId  ETV
vector 141  scenario.node[6].prot  busyTime  ETV
vector 142  scenario.node[6].prot  collisions  ETV
vector 162  scenario.node[7].prot  nodeId  ETV
vector 163  scenario.node[7].prot  busyTime  ETV
vector 164  scenario.node[7].prot  collisions  ETV
7	11091 13860 232 328174 1.11 59.91 589 -1.5 1.5 -14.445969899918 993.24092361736
6	24951 18587 232 328174 1.11 59.91 589 -1.472274679513 1.4513434175798 -12.507264912644 675.29835211523
5	43538 12081 232 328174 1.11 59.91 589 36.55 36.55 21527.95 786846.5725
4	55619 17892 232 328174 1.11 59.91 589 138.27520332323 959.25800182118 324043.2978949 211323467.62988
3	73511 17901 232 328174 1.11 59.91 589 12.599076970844 15.853603639796 8223.2832500118 115251.79065057
1	91412 9725 232 328174 1.11 59.91 589 0 0 0 0
0	101137 10314 232 328174 1.11 59.91 589 -1 -1 -589 589
2	111451 9725 232 328174 1.11 59.91 589 0 0 0 0
10	121176 859 5234 328728 2 60 59 0 0 0 0
9	122035 1155 5234 328728 2 60 59 0.023625 0.02625 1.546125 0.040523765625
8	123190 800 5234 328728 2 60 59 0 0 0 0
29	123990 19123 233 328175 1.11 59.91 589 -1.5218249230571 1.5060549793734 -12.714054002248 729.52683289731
28	143113 19226 233 328175 1.11 59.91 589 -1.4294162906857 1.3612703866462 -6.744934735762 513.04659474926
27	162339 12670 233 328175 1.11 59.91 589 36.55 36.55 21527.95 786846.5725
26	175009 18496 233 328175 1.11 59.91 589 125.33075294495 946.70418316882 316395.95734871 203017900.52589
25	193505 18508 233 328175 1.11 59.91 589 12.789861845054 15.681001818271 8227.3961652734 115267.7974052
23	212013 19579 233 328175 1.11 59.91 589 -0.71716495921052 0.69702496795955 -3.9878426125238 138.18363102984
22	231592 18498 233 328175 1.11 59.91 589 8.3611964849105 9.8557825878913 5291.4228044997 47632.079920476
24	250090 10314 233 328175 1.11 59.91 589 1 1 589 589
36	260404 23688 964 328350 1.24182329534 59.94182294504 588 0.099998933492 0.100012861804 58.799998599616 5.8799997251147
35	284092 23688 964 328350 1.24182329534 59.94182294504 588 0.099998933492 0.100012861804 58.799998599616 5.8799997251147
34	307780 16112 964 328350 1.24182329534 59.94182294504 588 1 1 588 588
33	323892 16112 964 328350 1.24182329534 59.94182294504 588 1 1 588 588
32	340004 859 5235 328729 2 60 59 0 0 0 0
31	340863 1214 5235 328729 2 60 59 0.023625 0.02625 1.546125 0.040523765625
30	342077 859 5235 328729 2 60 59 1 1 59 59
51	342936 19207 234 328176 1.11 59.91 589 -1.4848835291319 1.4155807057579 -6.3592475724253 556.18211141734
50	362143 19325 234 328176 1.11 59.91 589 -1.3416404990442 1.2243938937985 -0.25558985124725 391.71628775306
49	381468 12670 234 328176 1.11 59.91 589 36.55 36.55 21527.95 786846.5725
48	394138 18486 234 328176 1.11 59.91 589 112.38631019592 933.81449203322 308747.67830621 194909051.89673
47	412624 18484 234 328176 1.11 59.91 589 12.933337607309 15.553829139549 8228.1708960765 115217.5414038
45	431108 19506 234 328176 1.11 59.91 589 -0.68154802787585 0.63631634016003 -0.70728145570808 107.09083532565
44	450614 18496 234 328176 1.11 59.91 589 8.4343824680218 9.7930064743207 5292.2945371067 47628.564815551
46	469110 10314 234 328176 1.11 59.91 589 2 2 1178 2356
58	479424 23704 1176 328562 1.281932683942 59.981932673385 588 0.099998933689 0.100012833462 58.799998939359 5.8799997930591
57	503128 23697 970 328356 1.241823338518 59.94182298797 588 0.099998933638 0.100012862013 58.799998599368 5.8799997250651
56	526825 16116 1176 328562 1.281932683942 59.981932673385 588 2 2 1176 2352
55	542941 16112 970 328356 1.241823338518 59.94182298797 588 2 2 1176 2352
54	559053 859 5236 328730 2 60 59 0 0 0 0
53	559912 1214 5236 328730 2 60 59 0.023625 0.02625 1.546125 0.040523765625
52	561126 859 5236 328730 2 60 59 2 2 118 236
73	561985 19279 235 328177 1.11 59.91 589 -1.3922110704844 1.2741148917255 0.39764146907829 425.1781973821
72	581264 19409 235 328177 1.11 59.91 589 -1.2341602053278 1.0785510926841 4.7172920935699 301.19943071525
71	600673 12670 235 328177 1.11 59.91 589 36.55 36.55 21527.95 786846.5725
70	613343 18495 235 328177 1.11 59.91 589 99.441867446899 920.65060612885 301100.17256839 186999938.08303
69	631838 18507 235 328177 1.11 59.91 589 13.049475467782 15.453030792719 8226.1477761595 115106.37671292
67	650345 19528 235 328177 1.11 59.91 589 -0.62920934573681 0.56333706279178 2.0256758155449 82.198043495739
66	669873 18502 235 328177 1.11 59.91 589 8.4965046947995 9.7389099724773 5291.4652754224 47598.193449012
68	688375 10314 235 328177 1.11 59.91 589 3 3 1767 5301
80	698689 23693 1040 328426 1.262750381696 59.962750031797 588 0.099998933675 0.100012745015 58.799998600017 5.8799997251846
79	722382 23699 976 328362 1.241823381696 59.941823031831 588 0.09999893367 0.100012862194 58.799998600051 5.8799997252017
78	746081 16116 1040 328426 1.262750381696 59.962750031797 588 3 3 1764 5292
77	762197 16115 976 328362 1.241823381696 59.941823031831 588 3 3 1764 5292
76	778312 859 5237 328731 2 60 59 0 0 0 0
75	779171 1214 5237 328731 2 60 59 0.023625 0.02625 1.546125 0.040523765625
74	780385 859 5237 328731 2 60 59 3 3 177 531
95	781244 18134 236 328178 1.11 59.91 589 -7.2107853165465 1.5 3.4194737290609 1158.0035790977
94	799378 19329 236 328178 1.11 59.91 589 -6.1368819120982 1.4999999830962 0.591352988632 962.65894870117
93	818707 12670 236 328178 1.11 59.91 589 36.55 36.55 21527.95 786846.5725
92	831377 18499 236 328178 1.11 59.91 589 86.497420883179 856.78915797981 279038.7556209 159338595.62383
91	849876 18502 236 328178 1.11 59.91 589 2.355688638571 18.08709869112 7716.8226990979 107242.57695332
89	868378 19330 236 328178 1.11 59.91 589 -4.4389661734468 12.100936795397 509.2779041406 6582.8769572122
88	887708 18485 236 328178 1.11 59.91 589 8.5495577301386 78.423633933757 19695.230445957 1094654.6819784
90	906193 10314 236 328178 1.11 59.91 589 4 4 2356 9424
102	916507 24282 904 328302 1.240526165806 59.940525987677 588 0.099998932797 0.10001277569 58.799998771787 5.8799997595373
101	940789 24298 982 328368 1.241823424874 59.941823244893 588 0.099998933597 0.100012861559 58.799998769935 5.8799997591785
100	965087 16698 904 328302 1.240526165806 59.940525987677 588 4 4 2352 9408
99	981785 16121 982 328368 1.241823424874 59.941823244893 588 4 4 2352 9408
98	997906 859 5238 328732 2 60 59 0 0 0 0
97	998765 1214 5238 328732 2 60 59 0.023625 0.02625 1.546125 0.040523765625
96	999979 859 5238 328732 2 60 59 4 4 236 944
117	1000838 19934 237 328179 1.11 59.91 589 -6.3209158358217 1.5780363150429 0.30595926016135 1014.6666546384
116	1020772 19959 237 328179 1.11 59.91 589 -5.5708641980042 1.54281161338 -1.9624542976313 866.25942624085
115	1040731 13259 237 328179 1.11 59.91 589 36.55 36.55 21527.95 786846.5725
114	1053990 19087 237 328179 1.11 59.91 589 73.552978134155 843.93303544799 271645.67243753 152444465.94155
113	1073077 19090 237 328179 1.11 59.91 589 2.5310017974358 18.010196558316 7717.6174076471 107136.86095699
111	1092167 20106 237 328179 1.11 59.91 589 -2.8116793122224 0.75490588869276 -0.80062207901944 212.44170496161
110	1112273 19087 237 328179 1.11 59.91 589 3.2783844747812 10.933228978933 5037.0990775401 44533.356795708
112	1131360 10903 237 328179 1.11 59.91 589 5 5 2945 14725
124	1142263 24267 1242 328622 1.287402813476 59.987402973234 588 0.099998933469 0.100012784523 58.800012109674 5.8800024272727
123	1166530 24287 988 328374 1.241823468052 59.941823287801 588 0.099998933467 0.100012861807 58.799998769665 5.8799997591245
122	1190817 16688 1242 328622 1.287402813476 59.987402973234 588 5 5 2940 14700
121	1207505 16714 988 328374 1.241823468052 59.941823287801 588 5 5 2940 14700
120	1224219 918 5239 328733 2 60 59 0 0 0 0
119	1225137 1273 5239 328733 2 60 59 0.023625 0.02625 1.546125 0.040523765625
118	1226410 918 5239 328733 2 60 59 5 5 295 1475
139	1227328 19924 238 328180 1.11 59.91 589 -5.7438910910644 1.6332608654296 -2.2776588019239 911.00408763851
138	1247252 19968 238 328180 1.11 59.91 589 -5.1565154350371 1.5873150079192 -3.2598963121815 792.33691931452
137	1267220 13259 238 328180 1.11 59.91 589 36.55 36.55 21527.95 786846.5725
136	1280479 19095 238 328180 1.11 59.91 589 60.608531570435 831.15428533839 264252.25389808 145738126.31289
135	1299574 19089 238 328180 1.11 59.91 589 2.6642805133221 17.934864853417 7719.2309093715 107067.02640747
133	1318663 20186 238 328180 1.11 59.91 589 -2.5930996768131 0.77281217559939 -1.5938771815037 193.12691346232
132	1338849 19088 238 328180 1.11 59.91 589 3.3518392352543 10.895774591156 5037.4508094864 44513.8084815
134	1357937 10903 238 328180 1.11 59.91 589 6 6 3534 21204
146	1368840 24251 1106 328486 1.26671251123 59.966712330459 588 0.09999893335 0.100012865035 58.799998769145 5.8799997590208
145	1393091 24295 994 328380 1.24182351123 59.941823330439 588 0.099998933339 0.100012862051 58.799998769125 5.8799997590165
144	1417386 16697 1106 328486 1.26671251123 59.966712330459 588 6 6 3528 21168
143	1434083 16708 994 328380 1.24182351123 59.941823330439 588 6 6 3528 21168
142	1450791 918 5240 328734 2 60 59 0 0 0 0
141	1451709 1273 5240 328734 2 60 59 0.023625 0.02625 1.546125 0.040523765625
140	1452982 918 5240 328734 2 60 59 6 6 354 2124
161	1453900 19987 239 328181 1.11 59.91 589 -5.308010584687 1.6748827868027 -3.485749305081 831.54439283014
160	1473887 20036 239 328181 1.11 59.91 589 -4.8199378937397 1.6233465633058 -3.118523355504 732.99139970635
159	1493923 13259 239 328181 1.11 59.91 589 36.55 36.55 21527.95 786846.5725
158	1507182 19093 239 328181 1.11 59.91 589 47.664088821411 818.37684637684 256857.94834715 139218976.37641
157	1526275 19086 239 328181 1.11 59.91 589 2.7804519520792 17.861145507915 7720.9079158685 107008.36802471
155	1545361 20143 239 328181 1.11 59.91 589 -2.415923481075 0.78675834781774 -1.6444075338115 177.51234027045
154	1565504 19092 239 328181 1.11 59.91 589 3.4192644273951 10.859453987908 5038.339091054 44503.136596451
156	1584596 10903 239 328181 1.11 59.91 589 7 7 4123 28861
168	1595499 24279 1308 328688 1.289466899832 59.989467058508 588 0.099998933253 0.100012830016 58.799999108592 5.879999826905
167	1619778 24281 1000 328386 1.241823554408 59.941823373059 588 0.099998933257 0.100012862291 58.799998768567 5.8799997589049
166	1644059 16687 1308 328688 1.289466899832 59.989467058508 588 7 7 4116 28812
165	1660746 16689 1000 328386 1.241823554408 59.941823373059 588 7 7 4116 28812
164	1677435 918 5241 328735 2 60 59 0 0 0 0
163	1678353 1273 5241 328735 2 60 59 0.023625 0.02625 1.546125 0.040523765625
162	1679626 918 5241 328735 2 60 59 7 7 413 2891
