file 958817 1512144092                                          
version 2
run SinusoidalAccInjectionAttack-229-20171201-17:01:14-26509
attr CACCSpacing 20
attr attackAcc 10
attr attackPos 7
attr attackSpeed 150
attr attackStart 30
attr attacker 4
attr beaconInterval 0.1
attr configname SinusoidalAccInjectionAttack
attr controller 1
attr datetime 20171201-17:01:14
attr experiment SinusoidalAccInjectionAttack
attr fakeAcc "(4 == 4)"
attr fakePos "(4 == 2)"
attr fakeSpeed "(4 == 3)"
attr inifile omnetpp_229.ini
attr iterationvars "$attacker=4, $attackSpeed=150, $attackPos=7, $attackAcc=10, $leaderSpeed=150, $controller=1, $CACCSpacing=20, $sController=\"CACC\", $attackStart=30, $0=20, $1=0, $nCars=8, $platoonSize=8, $nLanes=1, $beaconInterval=0.1, $priority=2, $packetSize=200, $ploegH=0.5, $leaderHeadway=1.2, $fakeSpeed=(4 == 3), $fakeAcc=(4 == 4), $fakePos=(4 == 2)"
attr iterationvarsf attacker=4,attackSpeed=150,attackPos=7,attackAcc=10,leaderSpeed=150,controller=1,CACCSpacing=20,sController=CACC,attackStart=30,20,0,nCars=8,platoonSize=8,nLanes=1,beaconInterval=0.1,priority=2,packetSize=200,ploegH=0.5,leaderHeadway=1.2,fakeSpeed=(4_==_3),fakeAcc=(4_==_4),fakePos=(4_==_2)-
attr leaderHeadway 1.2
attr leaderSpeed 150
attr measurement "$attacker=4, $attackSpeed=150, $attackPos=7, $attackAcc=10, $leaderSpeed=150, $controller=1, $CACCSpacing=20, $sController=\"CACC\", $attackStart=30, $0=20, $1=0, $nCars=8, $platoonSize=8, $nLanes=1, $beaconInterval=0.1, $priority=2, $packetSize=200, $ploegH=0.5, $leaderHeadway=1.2, $fakeSpeed=(4 == 3), $fakeAcc=(4 == 4), $fakePos=(4 == 2)"
attr nCars 8
attr nLanes 1
attr network scenario
attr packetSize 200
attr platoonSize 8
attr ploegH 0.5
attr priority 2
attr processid 26509
attr repetition 4
attr replication #4
attr resultdir results
attr runnumber 229
attr sController "\"CACC\""
attr seedset 4
param **.coreDebug false
param **.debug false
param **.headway 0.1s
param **.numberOfCars 8
param **.numberOfCarsPerPlatoon 8
param **.numberOfLanes 1
param **.numericController 1
param **.traffic.nCars 8
param **.traffic.nLanes 1
param **.traffic.platoonInsertDistance 20m
param **.traffic.platoonInsertHeadway 0s
param **.traffic.platoonInsertSpeed 150kmph
param **.traffic.platoonInsertTime "1 s"
param **.traffic.platoonLeaderHeadway 1.2s
param **.traffic.platoonSize 8
param **.traffic.platooningVType "\"vtypeauto\""
param **.traffic_type "\"PlatoonsTrafficManager\""
param *.**.nic.mac1609_4.bitrate 6Mbps
param *.**.nic.mac1609_4.txPower 100mW
param *.**.nic.mac1609_4.useServiceChannel false
param *.**.nic.phy80211p.analogueModels "xmldoc(\"config.xml\")"
param *.**.nic.phy80211p.decider "xmldoc(\"config.xml\")"
param *.**.nic.phy80211p.maxTXPower 100mW
param *.**.nic.phy80211p.sensitivity -94dBm
param *.**.nic.phy80211p.thermalNoise -95dBm
param *.**.nic.phy80211p.usePropagationDelay true
param *.**.nic.phy80211p.useThermalNoise true
param *.annotations.draw false
param *.connectionManager.alpha 2.0
param *.connectionManager.carrierFrequency "5.890e9 Hz"
param *.connectionManager.pMax 100mW
param *.connectionManager.sat -94dBm
param *.connectionManager.sendDirect true
param *.manager.autoShutdown true
param *.manager.commandLine "\"sumo --remote-port $port --seed $seed --configuration-file $configFile\""
param *.manager.configFile "\"./sumocfg/freeway.sumo.cfg\""
param *.manager.host "\"localhost\""
param *.manager.margin 25
param *.manager.moduleDisplayString "\"\""
param *.manager.moduleName "\"node\""
param *.manager.moduleType "\"Car\""
param *.manager.updateInterval 0.01s
param *.node[*].appl.attackStart 30s
param *.node[*].appl.attackerType 4
param *.node[*].appl.simulationDuration "60 s"
param *.node[*].appl_type "\"SimplePlatooningApp\""
param *.node[*].helper.nCars 8
param *.node[*].helper.nLanes 1
param *.node[*].helper.platoonSize 8
param *.node[*].helper_type "\"PositionHelper\""
param *.node[*].mobility.x 0
param *.node[*].mobility.y 0
param *.node[*].mobility.z 1.895
param *.node[*].prot.attackStart 30s
param *.node[*].prot.attackerType 4
param *.node[*].prot.attackingNode 3
param *.node[*].prot.beaconingInterval 0.1s
param *.node[*].prot.fakeAcc "(4 == 4)"
param *.node[*].prot.fakePos "(4 == 2)"
param *.node[*].prot.fakeSpeed "(4 == 3)"
param *.node[*].prot.maliciousAcc "10 mpss"
param *.node[*].prot.maliciousSpeed 150kmph
param *.node[*].prot.packetSize 200
param *.node[*].prot.priority 2
param *.node[*].prot.shiftX "7 m"
param *.node[*].prot.useControllerAcceleration true
param *.node[*].protocol_type "\"SimplePlatooningBeaconing\""
param *.node[*].scenario.accHeadway 0.1s
param *.node[*].scenario.caccC1 0.5
param *.node[*].scenario.caccOmegaN "0.2 Hz"
param *.node[*].scenario.caccSpacing 20m
param *.node[*].scenario.caccXi 1
param *.node[*].scenario.controller "\"CACC\""
param *.node[*].scenario.engineTau "0.5 s"
param *.node[*].scenario.leaderHeadway 1.2s
param *.node[*].scenario.leaderSpeed 150kmph
param *.node[*].scenario.ploegH 0.5s
param *.node[*].scenario.ploegKd 0.7
param *.node[*].scenario.ploegKp 0.2
param *.node[*].scenario.useRealisticEngine false
param *.node[*].scenario_type "\"SinusoidalScenario\""
param *.node[*].unicast.packetLossRate 0
param *.obstacles.debug false
param *.playgroundSizeX 65000m
param *.playgroundSizeY 25000m
param *.playgroundSizeZ 50m
param *.world.use2D false
param *.world.useTorus false

vector 0  scenario.node[0].appl  distance  ETV
vector 1  scenario.node[0].appl  relativeSpeed  ETV
vector 2  scenario.node[0].appl  nodeId  ETV
vector 6  scenario.node[0].appl  acceleration  ETV
vector 7  scenario.node[0].appl  controllerAcceleration  ETV
vector 3  scenario.node[0].appl  speed  ETV
vector 4  scenario.node[0].appl  posx  ETV
vector 5  scenario.node[0].appl  posy  ETV
vector 22  scenario.node[1].appl  distance  ETV
vector 23  scenario.node[1].appl  relativeSpeed  ETV
vector 24  scenario.node[1].appl  nodeId  ETV
vector 28  scenario.node[1].appl  acceleration  ETV
vector 29  scenario.node[1].appl  controllerAcceleration  ETV
vector 25  scenario.node[1].appl  speed  ETV
vector 26  scenario.node[1].appl  posx  ETV
vector 27  scenario.node[1].appl  posy  ETV
vector 44  scenario.node[2].appl  distance  ETV
vector 45  scenario.node[2].appl  relativeSpeed  ETV
vector 46  scenario.node[2].appl  nodeId  ETV
vector 50  scenario.node[2].appl  acceleration  ETV
vector 51  scenario.node[2].appl  controllerAcceleration  ETV
vector 47  scenario.node[2].appl  speed  ETV
vector 48  scenario.node[2].appl  posx  ETV
vector 49  scenario.node[2].appl  posy  ETV
vector 66  scenario.node[3].appl  distance  ETV
vector 67  scenario.node[3].appl  relativeSpeed  ETV
vector 68  scenario.node[3].appl  nodeId  ETV
vector 72  scenario.node[3].appl  acceleration  ETV
vector 73  scenario.node[3].appl  controllerAcceleration  ETV
vector 69  scenario.node[3].appl  speed  ETV
vector 70  scenario.node[3].appl  posx  ETV
vector 71  scenario.node[3].appl  posy  ETV
vector 88  scenario.node[4].appl  distance  ETV
vector 89  scenario.node[4].appl  relativeSpeed  ETV
vector 90  scenario.node[4].appl  nodeId  ETV
vector 94  scenario.node[4].appl  acceleration  ETV
vector 95  scenario.node[4].appl  controllerAcceleration  ETV
vector 91  scenario.node[4].appl  speed  ETV
vector 92  scenario.node[4].appl  posx  ETV
vector 93  scenario.node[4].appl  posy  ETV
vector 110  scenario.node[5].appl  distance  ETV
vector 111  scenario.node[5].appl  relativeSpeed  ETV
vector 112  scenario.node[5].appl  nodeId  ETV
vector 116  scenario.node[5].appl  acceleration  ETV
vector 117  scenario.node[5].appl  controllerAcceleration  ETV
vector 113  scenario.node[5].appl  speed  ETV
vector 114  scenario.node[5].appl  posx  ETV
vector 115  scenario.node[5].appl  posy  ETV
vector 132  scenario.node[6].appl  distance  ETV
vector 133  scenario.node[6].appl  relativeSpeed  ETV
vector 134  scenario.node[6].appl  nodeId  ETV
vector 138  scenario.node[6].appl  acceleration  ETV
vector 139  scenario.node[6].appl  controllerAcceleration  ETV
vector 135  scenario.node[6].appl  speed  ETV
vector 136  scenario.node[6].appl  posx  ETV
vector 137  scenario.node[6].appl  posy  ETV
vector 154  scenario.node[7].appl  distance  ETV
vector 155  scenario.node[7].appl  relativeSpeed  ETV
vector 156  scenario.node[7].appl  nodeId  ETV
vector 160  scenario.node[7].appl  acceleration  ETV
vector 161  scenario.node[7].appl  controllerAcceleration  ETV
vector 157  scenario.node[7].appl  speed  ETV
vector 158  scenario.node[7].appl  posx  ETV
vector 159  scenario.node[7].appl  posy  ETV
vector 102  scenario.node[4].prot  frontDelay  ETV
vector 100  scenario.node[4].prot  frontDelayId  ETV
vector 35  scenario.node[1].prot  leaderDelay  ETV
vector 33  scenario.node[1].prot  leaderDelayId  ETV
vector 36  scenario.node[1].prot  frontDelay  ETV
vector 34  scenario.node[1].prot  frontDelayId  ETV
vector 57  scenario.node[2].prot  leaderDelay  ETV
vector 55  scenario.node[2].prot  leaderDelayId  ETV
vector 79  scenario.node[3].prot  leaderDelay  ETV
vector 77  scenario.node[3].prot  leaderDelayId  ETV
vector 101  scenario.node[4].prot  leaderDelay  ETV
vector 99  scenario.node[4].prot  leaderDelayId  ETV
vector 123  scenario.node[5].prot  leaderDelay  ETV
vector 121  scenario.node[5].prot  leaderDelayId  ETV
vector 145  scenario.node[6].prot  leaderDelay  ETV
vector 143  scenario.node[6].prot  leaderDelayId  ETV
vector 167  scenario.node[7].prot  leaderDelay  ETV
vector 165  scenario.node[7].prot  leaderDelayId  ETV
vector 80  scenario.node[3].prot  frontDelay  ETV
vector 78  scenario.node[3].prot  frontDelayId  ETV
vector 146  scenario.node[6].prot  frontDelay  ETV
vector 144  scenario.node[6].prot  frontDelayId  ETV
vector 58  scenario.node[2].prot  frontDelay  ETV
vector 56  scenario.node[2].prot  frontDelayId  ETV
vector 124  scenario.node[5].prot  frontDelay  ETV
vector 122  scenario.node[5].prot  frontDelayId  ETV
vector 168  scenario.node[7].prot  frontDelay  ETV
vector 166  scenario.node[7].prot  frontDelayId  ETV
vector 8  scenario.node[0].prot  nodeId  ETV
vector 9  scenario.node[0].prot  busyTime  ETV
vector 10  scenario.node[0].prot  collisions  ETV
vector 30  scenario.node[1].prot  nodeId  ETV
vector 31  scenario.node[1].prot  busyTime  ETV
vector 32  scenario.node[1].prot  collisions  ETV
vector 52  scenario.node[2].prot  nodeId  ETV
vector 53  scenario.node[2].prot  busyTime  ETV
vector 54  scenario.node[2].prot  collisions  ETV
vector 74  scenario.node[3].prot  nodeId  ETV
vector 75  scenario.node[3].prot  busyTime  ETV
vector 76  scenario.node[3].prot  collisions  ETV
vector 96  scenario.node[4].prot  nodeId  ETV
vector 97  scenario.node[4].prot  busyTime  ETV
vector 98  scenario.node[4].prot  collisions  ETV
vector 118  scenario.node[5].prot  nodeId  ETV
vector 119  scenario.node[5].prot  busyTime  ETV
vector 120  scenario.node[5].prot  collisions  ETV
vector 140  scenario.node[6].prot  nodeId  ETV
vector 141  scenario.node[6].prot  busyTime  ETV
vector 142  scenario.node[6].prot  collisions  ETV
vector 162  scenario.node[7].prot  nodeId  ETV
vector 163  scenario.node[7].prot  busyTime  ETV
vector 164  scenario.node[7].prot  collisions  ETV
7	11086 8063 232 188167 1.11 34.81 338 -1.5 1.5 -15.315259418771 536.99541531975
6	19149 10615 232 188167 1.11 34.81 338 -1.4722746794739 1.4513407705138 -11.875214470847 365.91846452059
5	29764 6810 232 188167 1.11 34.81 338 36.55 36.55 12353.9 451535.045
4	36574 10165 232 188167 1.11 34.81 338 218.44185905417 1627.0446060365 312224.65308323 344589081.07392
3	46739 10139 232 188167 1.11 34.81 338 40.376926150007 43.631381416411 14127.284594867 590720.51774033
1	56878 5458 232 188167 1.11 34.81 338 0 0 0 0
0	62336 5796 232 188167 1.11 34.81 338 -1 -1 -338 338
2	68132 5458 232 188167 1.11 34.81 338 0 0 0 0
10	73590 469 5234 183700 2 34 33 0 0 0 0
9	74059 635 5234 183700 2 34 33 0.023625 0.02625 0.863625 0.022608140625
8	74694 436 5234 183700 2 34 33 0 0 0 0
29	75130 10368 233 188168 1.11 34.81 338 -1.5022740557198 1.5017241001272 -15.695376359421 534.11632280678
28	85498 10933 233 188168 1.11 34.81 338 -1.4793271055183 1.4491063996864 -11.462405790175 365.24998258238
27	96431 7148 233 188168 1.11 34.81 338 36.55 36.55 12353.9 451535.045
26	103579 10490 233 188168 1.11 34.81 338 194.44185905457 1603.0694850994 304107.05693866 329785051.54426
25	114069 10486 233 188168 1.11 34.81 338 40.376602337142 43.632935310277 14127.54881229 590742.07977994
23	124555 11470 233 188168 1.11 34.81 338 -0.062041779756484 0.062927524299965 -0.14546527803148 0.65040786646331
22	136025 10488 233 188168 1.11 34.81 338 19.934067041531 20.098814988228 6765.6014289254 135424.8346026
24	146513 5796 233 188168 1.11 34.81 338 1 1 338 338
36	152309 13448 964 188343 1.241824401662 34.841821752731 337 0.099999708291 0.100012761594 33.699997112288 3.3699994234537
35	165757 13448 964 188343 1.241824401662 34.841821752731 337 0.099999708291 0.100012761594 33.699997112288 3.3699994234537
34	179205 9106 964 188343 1.241824401662 34.841821752731 337 1 1 337 337
33	188311 9106 964 188343 1.241824401662 34.841821752731 337 1 1 337 337
32	197417 469 5235 183701 2 34 33 0 0 0 0
31	197886 668 5235 183701 2 34 33 0.023625 0.02625 0.863625 0.022608140625
30	198554 469 5235 183701 2 34 33 1 1 33 33
51	199023 10561 234 188169 1.11 34.81 338 -1.515739459891 1.5126010685353 -16.208873325269 538.7891094044
50	209584 10935 234 188169 1.11 34.81 338 -1.4731702669735 1.4434762629406 -11.252068414827 362.87382727821
49	220519 7148 234 188169 1.11 34.81 338 36.55 36.55 12353.9 451535.045
48	227667 10488 234 188169 1.11 34.81 338 170.44185905457 1579.08111786 295993.81069002 315380596.066
47	238155 10498 234 188169 1.11 34.81 338 40.378428751727 43.626244762177 14127.672912914 590750.72539568
45	248653 11578 234 188169 1.11 34.81 338 -0.017729423758816 0.015851883069203 -0.0094765659611795 0.033788288379621
44	260231 10488 234 188169 1.11 34.81 338 19.972823043039 20.042588123035 6761.2487306507 135250.05390249
46	270719 5796 234 188169 1.11 34.81 338 2 2 676 1352
58	276515 13481 1176 188555 1.281934122161 34.881931428761 337 0.099999704624 0.100012761219 33.699997067819 3.3699994145599
57	289996 13450 970 188349 1.241824481718 34.841821832746 337 0.099999708284 0.100012761603 33.699997112247 3.3699994234455
56	303446 9127 1176 188555 1.281934122161 34.881931428761 337 2 2 674 1348
55	312573 9101 970 188349 1.241824481718 34.841821832746 337 2 2 674 1348
54	321674 469 5236 183702 2 34 33 0 0 0 0
53	322143 668 5236 183702 2 34 33 0.023625 0.02625 0.863625 0.022608140625
52	322811 469 5236 183702 2 34 33 2 2 66 132
73	323280 10915 235 188170 1.11 34.81 338 -1.4979584877477 1.4963276130332 -15.931686471448 526.90288499117
72	334195 10950 235 188170 1.11 34.81 338 -1.4632764912697 1.4357843220992 -11.046973863716 357.60996092762
71	345145 7148 235 188170 1.11 34.81 338 36.55 36.55 12353.9 451535.045
70	352293 10488 235 188170 1.11 34.81 338 146.44186668396 1555.1004033015 287883.04922372 301371322.31168
69	362781 10495 235 188170 1.11 34.81 338 40.387325075076 43.618106131484 14127.872961836 590764.05803253
67	373276 11641 235 188170 1.11 34.81 338 -0.015485115986692 0.01153880836609 -0.08752823814779 0.015939284913872
66	384917 10490 235 188170 1.11 34.81 338 19.970461244214 20.035617327715 6758.7654672729 135150.69910249
68	395407 5796 235 188170 1.11 34.81 338 3 3 1014 3042
80	401203 13464 1040 188413 1.262751561773 34.862748912734 337 0.099999708277 0.100012763184 33.69999711218 3.3699994234322
79	414667 13453 976 188355 1.241824561773 34.841821912735 337 0.099999708277 0.100012761611 33.699997112181 3.3699994234323
78	428120 9110 1040 188413 1.262751561773 34.862748912734 337 3 3 1011 3033
77	437230 9112 976 188355 1.241824561773 34.841821912735 337 3 3 1011 3033
76	446342 469 5237 183703 2 34 33 0 0 0 0
75	446811 668 5237 183703 2 34 33 0.023625 0.02625 0.863625 0.022608140625
74	447479 469 5237 183703 2 34 33 3 3 99 297
117	447948 10856 237 188172 1.11 34.81 338 -1.4978823369274 1.5 49.025565824235 525.86997996863
116	458804 11256 237 188172 1.11 34.81 338 -1.4541166707247 1.4946207849086 43.996614536376 368.69582157296
115	470060 7486 237 188172 1.11 34.81 338 36.55 36.55 12353.9 451535.045
114	477546 10845 237 188172 1.11 34.81 338 98.44186668396 1513.4519029849 271714.43200022 274678267.41176
113	488391 10837 237 188172 1.11 34.81 338 40.395082511056 46.021563611698 14193.299334165 596437.71819641
111	499228 11676 237 188172 1.11 34.81 338 -0.033954328640412 4.1472998362151 129.59924189933 430.82408995098
110	510904 10814 237 188172 1.11 34.81 338 19.974351177677 32.821346709932 6987.602283078 146167.87277318
112	521718 6134 237 188172 1.11 34.81 338 5 5 1690 8450
124	527852 13807 1242 188627 1.287391362327 34.887401646384 337 0.099999702789 0.100012762958 33.700010045276 3.3700020102135
123	541659 13796 988 188367 1.241824721884 34.841822051111 337 0.099999706475 0.100012761619 33.699997090446 3.3699994190854
122	555455 9450 1242 188627 1.287391362327 34.887401646384 337 5 5 1685 8425
121	564905 9450 988 188367 1.241824721884 34.841822051111 337 5 5 1685 8425
120	574355 502 5239 183705 2 34 33 0 0 0 0
119	574857 701 5239 183705 2 34 33 0.023625 0.02625 0.863625 0.022608140625
118	575558 502 5239 183705 2 34 33 5 5 165 825
139	576060 11231 238 188173 1.11 34.81 338 -1.4890055542858 1.5 22.815614145234 477.73701008282
138	587291 11273 238 188173 1.11 34.81 338 -1.4486611883129 1.4384336219685 20.220857380599 327.22558980686
137	598564 7486 238 188173 1.11 34.81 338 36.55 36.55 12353.9 451535.045
136	606050 10828 238 188173 1.11 34.81 338 74.44186668396 1486.4382855632 263576.07334955 261754077.5755
135	616878 10827 238 188173 1.11 34.81 338 40.401055334095 43.668632091402 14162.334738183 593690.20869818
133	627705 11778 238 188173 1.11 34.81 338 -0.018947290100726 2.3432162266656 30.524629836783 50.414413179557
132	639483 10811 238 188173 1.11 34.81 338 19.987380040116 22.966558791329 6785.7393587518 136277.00772827
134	650294 6134 238 188173 1.11 34.81 338 6 6 2028 12168
146	656428 13807 1106 188479 1.266713801939 34.866711141245 337 0.099999707249 0.100012761861 33.699997100525 3.3699994211012
145	670235 13809 994 188373 1.241824801939 34.841822141456 337 0.099999707258 0.100012761619 33.699997100736 3.3699994211434
144	684044 9452 1106 188479 1.266713801939 34.866711141245 337 6 6 2022 12132
143	693496 9452 994 188373 1.241824801939 34.841822141456 337 6 6 2022 12132
142	702948 502 5240 183706 2 34 33 0 0 0 0
141	703450 701 5240 183706 2 34 33 0.023625 0.02625 0.863625 0.022608140625
140	704151 502 5240 183706 2 34 33 6 6 198 1188
161	704653 11178 239 188174 1.11 34.81 338 -1.4963545137841 1.5 6.8226988044384 490.06836815947
160	715831 11306 239 188174 1.11 34.81 338 -1.4519455830097 1.4347156551182 6.4925726407331 329.79167424998
159	727137 7486 239 188174 1.11 34.81 338 36.55 36.55 12353.9 451535.045
158	734623 10833 239 188174 1.11 34.81 338 50.44186668396 1460.8833174739 255451.41755688 249260547.4427
157	745456 10829 239 188174 1.11 34.81 338 40.394134149007 43.606419142501 14146.308568008 592311.44229944
155	756285 11765 239 188174 1.11 34.81 338 -0.031834543456981 1.3455609795432 15.82396160131 14.804278602335
154	768050 10803 239 188174 1.11 34.81 338 19.97740293488 21.527978700183 6772.3352692669 135705.13674591
156	778853 6134 239 188174 1.11 34.81 338 7 7 2366 16562
168	784987 13816 1308 188681 1.289468522438 34.889465822611 337 0.099999704036 0.100012761288 33.699997061392 3.3699994132745
167	798803 13798 1000 188379 1.241824881995 34.841822226835 337 0.099999707708 0.100012761613 33.699997106059 3.3699994222079
166	812601 9464 1308 188681 1.289468522438 34.889465822611 337 7 7 2359 16513
165	822065 9451 1000 188379 1.241824881995 34.841822226835 337 7 7 2359 16513
164	831516 502 5241 183707 2 34 33 0 0 0 0
163	832018 701 5241 183707 2 34 33 0.023625 0.02625 0.863625 0.022608140625
162	832719 502 5241 183707 2 34 33 7 7 231 1617
88	833221 10495 236 188719 1.11 34.89 339 0 20.053884465978 6478.3234678665 127094.21992511
89	843716 11447 236 188719 1.11 34.89 339 -9.6007151329538 0.025074509149064 -205.36022627806 1285.004758051
90	855163 5814 236 188719 1.11 34.89 339 4 4 1356 5424
91	860977 10529 236 188719 1.11 34.89 339 40.391857420866 50.126092007255 14373.869034727 610847.02898947
92	871506 10528 236 188719 1.11 34.89 339 122.44186668396 1554.3633763032 281611.00653178 291016582.2572
93	882034 7170 236 188719 1.11 34.89 339 36.55 36.55 12390.45 452870.9475
94	889204 10949 236 188719 1.11 34.89 339 -1.4604041419176 2.4999999999999 85.009065303736 515.06583124211
95	900153 10899 236 188719 1.11 34.89 339 -1.491674293889 5.7072542397992 135.88260125394 1082.5481410109
96	911052 469 5238 183704 2 34 33 4 4 132 528
97	911521 668 5238 183704 2 34 33 0.023625 0.02625 0.863625 0.022608140625
98	912189 469 5238 183704 2 34 33 0 0 0 0
99	912658 9115 982 188361 1.241824641829 34.841821927612 337 4 4 1348 5392
100	921773 9447 904 188277 1.240527161496 34.840537447669 337 4 4 1348 5392
101	931220 13802 982 188361 1.241824641829 34.841821927612 337 0.09999970512 0.100012761623 33.699997047002 3.3699994103966
102	945022 13795 904 188277 1.240527161496 34.840537447669 337 0.099999705181 0.100012763147 33.700010047392 3.3700020106365
