file 867189 1512142988                                          
version 2
run SinusoidalAccInjectionAttack-21-20171201-16:42:48-79808
attr CACCSpacing 5
attr attackAcc -30
attr attackPos 7
attr attackSpeed 150
attr attackStart 30
attr attacker 4
attr beaconInterval 0.1
attr configname SinusoidalAccInjectionAttack
attr controller 1
attr datetime 20171201-16:42:48
attr experiment SinusoidalAccInjectionAttack
attr fakeAcc "(4 == 4)"
attr fakePos "(4 == 2)"
attr fakeSpeed "(4 == 3)"
attr inifile omnetpp_21.ini
attr iterationvars "$attacker=4, $attackSpeed=150, $attackPos=7, $attackAcc=-30, $leaderSpeed=100, $controller=1, $CACCSpacing=5, $sController=\"CACC\", $attackStart=30, $0=5, $1=0, $nCars=8, $platoonSize=8, $nLanes=1, $beaconInterval=0.1, $priority=2, $packetSize=200, $ploegH=0.5, $leaderHeadway=1.2, $fakeSpeed=(4 == 3), $fakeAcc=(4 == 4), $fakePos=(4 == 2)"
attr iterationvarsf attacker=4,attackSpeed=150,attackPos=7,attackAcc=-30,leaderSpeed=100,controller=1,CACCSpacing=5,sController=CACC,attackStart=30,5,0,nCars=8,platoonSize=8,nLanes=1,beaconInterval=0.1,priority=2,packetSize=200,ploegH=0.5,leaderHeadway=1.2,fakeSpeed=(4_==_3),fakeAcc=(4_==_4),fakePos=(4_==_2)-
attr leaderHeadway 1.2
attr leaderSpeed 100
attr measurement "$attacker=4, $attackSpeed=150, $attackPos=7, $attackAcc=-30, $leaderSpeed=100, $controller=1, $CACCSpacing=5, $sController=\"CACC\", $attackStart=30, $0=5, $1=0, $nCars=8, $platoonSize=8, $nLanes=1, $beaconInterval=0.1, $priority=2, $packetSize=200, $ploegH=0.5, $leaderHeadway=1.2, $fakeSpeed=(4 == 3), $fakeAcc=(4 == 4), $fakePos=(4 == 2)"
attr nCars 8
attr nLanes 1
attr network scenario
attr packetSize 200
attr platoonSize 8
attr ploegH 0.5
attr priority 2
attr processid 79808
attr repetition 1
attr replication #1
attr resultdir results
attr runnumber 21
attr sController "\"CACC\""
attr seedset 1
param **.coreDebug false
param **.debug false
param **.headway 0.1s
param **.numberOfCars 8
param **.numberOfCarsPerPlatoon 8
param **.numberOfLanes 1
param **.numericController 1
param **.traffic.nCars 8
param **.traffic.nLanes 1
param **.traffic.platoonInsertDistance 5m
param **.traffic.platoonInsertHeadway 0s
param **.traffic.platoonInsertSpeed 100kmph
param **.traffic.platoonInsertTime "1 s"
param **.traffic.platoonLeaderHeadway 1.2s
param **.traffic.platoonSize 8
param **.traffic.platooningVType "\"vtypeauto\""
param **.traffic_type "\"PlatoonsTrafficManager\""
param *.**.nic.mac1609_4.bitrate 6Mbps
param *.**.nic.mac1609_4.txPower 100mW
param *.**.nic.mac1609_4.useServiceChannel false
param *.**.nic.phy80211p.analogueModels "xmldoc(\"config.xml\")"
param *.**.nic.phy80211p.decider "xmldoc(\"config.xml\")"
param *.**.nic.phy80211p.maxTXPower 100mW
param *.**.nic.phy80211p.sensitivity -94dBm
param *.**.nic.phy80211p.thermalNoise -95dBm
param *.**.nic.phy80211p.usePropagationDelay true
param *.**.nic.phy80211p.useThermalNoise true
param *.annotations.draw false
param *.connectionManager.alpha 2.0
param *.connectionManager.carrierFrequency "5.890e9 Hz"
param *.connectionManager.pMax 100mW
param *.connectionManager.sat -94dBm
param *.connectionManager.sendDirect true
param *.manager.autoShutdown true
param *.manager.commandLine "\"sumo --remote-port $port --seed $seed --configuration-file $configFile\""
param *.manager.configFile "\"./sumocfg/freeway.sumo.cfg\""
param *.manager.host "\"localhost\""
param *.manager.margin 25
param *.manager.moduleDisplayString "\"\""
param *.manager.moduleName "\"node\""
param *.manager.moduleType "\"Car\""
param *.manager.updateInterval 0.01s
param *.node[*].appl.attackStart 30s
param *.node[*].appl.attackerType 4
param *.node[*].appl.simulationDuration "60 s"
param *.node[*].appl_type "\"SimplePlatooningApp\""
param *.node[*].helper.nCars 8
param *.node[*].helper.nLanes 1
param *.node[*].helper.platoonSize 8
param *.node[*].helper_type "\"PositionHelper\""
param *.node[*].mobility.x 0
param *.node[*].mobility.y 0
param *.node[*].mobility.z 1.895
param *.node[*].prot.attackStart 30s
param *.node[*].prot.attackerType 4
param *.node[*].prot.attackingNode 3
param *.node[*].prot.beaconingInterval 0.1s
param *.node[*].prot.fakeAcc "(4 == 4)"
param *.node[*].prot.fakePos "(4 == 2)"
param *.node[*].prot.fakeSpeed "(4 == 3)"
param *.node[*].prot.maliciousAcc "-30 mpss"
param *.node[*].prot.maliciousSpeed 150kmph
param *.node[*].prot.packetSize 200
param *.node[*].prot.priority 2
param *.node[*].prot.shiftX "7 m"
param *.node[*].prot.useControllerAcceleration true
param *.node[*].protocol_type "\"SimplePlatooningBeaconing\""
param *.node[*].scenario.accHeadway 0.1s
param *.node[*].scenario.caccC1 0.5
param *.node[*].scenario.caccOmegaN "0.2 Hz"
param *.node[*].scenario.caccSpacing 5m
param *.node[*].scenario.caccXi 1
param *.node[*].scenario.controller "\"CACC\""
param *.node[*].scenario.engineTau "0.5 s"
param *.node[*].scenario.leaderHeadway 1.2s
param *.node[*].scenario.leaderSpeed 100kmph
param *.node[*].scenario.ploegH 0.5s
param *.node[*].scenario.ploegKd 0.7
param *.node[*].scenario.ploegKp 0.2
param *.node[*].scenario.useRealisticEngine false
param *.node[*].scenario_type "\"SinusoidalScenario\""
param *.node[*].unicast.packetLossRate 0
param *.obstacles.debug false
param *.playgroundSizeX 65000m
param *.playgroundSizeY 25000m
param *.playgroundSizeZ 50m
param *.world.use2D false
param *.world.useTorus false

vector 0  scenario.node[0].appl  distance  ETV
vector 1  scenario.node[0].appl  relativeSpeed  ETV
vector 2  scenario.node[0].appl  nodeId  ETV
vector 6  scenario.node[0].appl  acceleration  ETV
vector 7  scenario.node[0].appl  controllerAcceleration  ETV
vector 3  scenario.node[0].appl  speed  ETV
vector 4  scenario.node[0].appl  posx  ETV
vector 5  scenario.node[0].appl  posy  ETV
vector 22  scenario.node[1].appl  distance  ETV
vector 23  scenario.node[1].appl  relativeSpeed  ETV
vector 24  scenario.node[1].appl  nodeId  ETV
vector 28  scenario.node[1].appl  acceleration  ETV
vector 29  scenario.node[1].appl  controllerAcceleration  ETV
vector 25  scenario.node[1].appl  speed  ETV
vector 26  scenario.node[1].appl  posx  ETV
vector 27  scenario.node[1].appl  posy  ETV
vector 44  scenario.node[2].appl  distance  ETV
vector 45  scenario.node[2].appl  relativeSpeed  ETV
vector 46  scenario.node[2].appl  nodeId  ETV
vector 50  scenario.node[2].appl  acceleration  ETV
vector 51  scenario.node[2].appl  controllerAcceleration  ETV
vector 47  scenario.node[2].appl  speed  ETV
vector 48  scenario.node[2].appl  posx  ETV
vector 49  scenario.node[2].appl  posy  ETV
vector 66  scenario.node[3].appl  distance  ETV
vector 67  scenario.node[3].appl  relativeSpeed  ETV
vector 68  scenario.node[3].appl  nodeId  ETV
vector 72  scenario.node[3].appl  acceleration  ETV
vector 73  scenario.node[3].appl  controllerAcceleration  ETV
vector 69  scenario.node[3].appl  speed  ETV
vector 70  scenario.node[3].appl  posx  ETV
vector 71  scenario.node[3].appl  posy  ETV
vector 88  scenario.node[4].appl  distance  ETV
vector 89  scenario.node[4].appl  relativeSpeed  ETV
vector 90  scenario.node[4].appl  nodeId  ETV
vector 94  scenario.node[4].appl  acceleration  ETV
vector 95  scenario.node[4].appl  controllerAcceleration  ETV
vector 91  scenario.node[4].appl  speed  ETV
vector 92  scenario.node[4].appl  posx  ETV
vector 93  scenario.node[4].appl  posy  ETV
vector 110  scenario.node[5].appl  distance  ETV
vector 111  scenario.node[5].appl  relativeSpeed  ETV
vector 112  scenario.node[5].appl  nodeId  ETV
vector 116  scenario.node[5].appl  acceleration  ETV
vector 117  scenario.node[5].appl  controllerAcceleration  ETV
vector 113  scenario.node[5].appl  speed  ETV
vector 114  scenario.node[5].appl  posx  ETV
vector 115  scenario.node[5].appl  posy  ETV
vector 132  scenario.node[6].appl  distance  ETV
vector 133  scenario.node[6].appl  relativeSpeed  ETV
vector 134  scenario.node[6].appl  nodeId  ETV
vector 138  scenario.node[6].appl  acceleration  ETV
vector 139  scenario.node[6].appl  controllerAcceleration  ETV
vector 135  scenario.node[6].appl  speed  ETV
vector 136  scenario.node[6].appl  posx  ETV
vector 137  scenario.node[6].appl  posy  ETV
vector 154  scenario.node[7].appl  distance  ETV
vector 155  scenario.node[7].appl  relativeSpeed  ETV
vector 156  scenario.node[7].appl  nodeId  ETV
vector 160  scenario.node[7].appl  acceleration  ETV
vector 161  scenario.node[7].appl  controllerAcceleration  ETV
vector 157  scenario.node[7].appl  speed  ETV
vector 158  scenario.node[7].appl  posx  ETV
vector 159  scenario.node[7].appl  posy  ETV
vector 58  scenario.node[2].prot  frontDelay  ETV
vector 56  scenario.node[2].prot  frontDelayId  ETV
vector 102  scenario.node[4].prot  frontDelay  ETV
vector 100  scenario.node[4].prot  frontDelayId  ETV
vector 146  scenario.node[6].prot  frontDelay  ETV
vector 144  scenario.node[6].prot  frontDelayId  ETV
vector 168  scenario.node[7].prot  frontDelay  ETV
vector 166  scenario.node[7].prot  frontDelayId  ETV
vector 124  scenario.node[5].prot  frontDelay  ETV
vector 122  scenario.node[5].prot  frontDelayId  ETV
vector 35  scenario.node[1].prot  leaderDelay  ETV
vector 33  scenario.node[1].prot  leaderDelayId  ETV
vector 36  scenario.node[1].prot  frontDelay  ETV
vector 34  scenario.node[1].prot  frontDelayId  ETV
vector 57  scenario.node[2].prot  leaderDelay  ETV
vector 55  scenario.node[2].prot  leaderDelayId  ETV
vector 79  scenario.node[3].prot  leaderDelay  ETV
vector 77  scenario.node[3].prot  leaderDelayId  ETV
vector 101  scenario.node[4].prot  leaderDelay  ETV
vector 99  scenario.node[4].prot  leaderDelayId  ETV
vector 123  scenario.node[5].prot  leaderDelay  ETV
vector 121  scenario.node[5].prot  leaderDelayId  ETV
vector 145  scenario.node[6].prot  leaderDelay  ETV
vector 143  scenario.node[6].prot  leaderDelayId  ETV
vector 167  scenario.node[7].prot  leaderDelay  ETV
vector 165  scenario.node[7].prot  leaderDelayId  ETV
vector 80  scenario.node[3].prot  frontDelay  ETV
vector 78  scenario.node[3].prot  frontDelayId  ETV
vector 8  scenario.node[0].prot  nodeId  ETV
vector 9  scenario.node[0].prot  busyTime  ETV
vector 10  scenario.node[0].prot  collisions  ETV
vector 30  scenario.node[1].prot  nodeId  ETV
vector 31  scenario.node[1].prot  busyTime  ETV
vector 32  scenario.node[1].prot  collisions  ETV
vector 52  scenario.node[2].prot  nodeId  ETV
vector 53  scenario.node[2].prot  busyTime  ETV
vector 54  scenario.node[2].prot  collisions  ETV
vector 74  scenario.node[3].prot  nodeId  ETV
vector 75  scenario.node[3].prot  busyTime  ETV
vector 76  scenario.node[3].prot  collisions  ETV
vector 96  scenario.node[4].prot  nodeId  ETV
vector 97  scenario.node[4].prot  busyTime  ETV
vector 98  scenario.node[4].prot  collisions  ETV
vector 118  scenario.node[5].prot  nodeId  ETV
vector 119  scenario.node[5].prot  busyTime  ETV
vector 120  scenario.node[5].prot  collisions  ETV
vector 140  scenario.node[6].prot  nodeId  ETV
vector 141  scenario.node[6].prot  busyTime  ETV
vector 142  scenario.node[6].prot  collisions  ETV
vector 162  scenario.node[7].prot  nodeId  ETV
vector 163  scenario.node[7].prot  busyTime  ETV
vector 164  scenario.node[7].prot  collisions  ETV
7	11079 7269 232 170319 1.11 31.61 306 -1.5 1.5 10.822360323987 484.26089741013
6	18348 9599 232 170319 1.11 31.61 306 -1.4722746794938 1.4513241957726 2.8651853618747 323.16681717396
5	27947 6138 232 170319 1.11 31.61 306 36.55 36.55 11184.3 408786.165
4	34085 9159 232 170319 1.11 31.61 306 98.383170318337 948.65016136813 160679.83751317 102968840.81694
3	43244 9164 232 170319 1.11 31.61 306 26.488037261118 29.742492528104 8530.5374520718 238036.01420311
1	52408 4914 232 170319 1.11 31.61 306 0 0 0 0
0	57322 5220 232 170319 1.11 31.61 306 -1 -1 -306 306
2	62542 4914 232 170319 1.11 31.61 306 0 0 0 0
10	67456 423 5168 166900 2 31 30 0 0 0 0
9	67879 574 5168 166900 2 31 30 0.023297 0.02625 0.784547 0.020525562709
8	68453 393 5168 166900 2 31 30 0 0 0 0
29	68846 9818 233 170320 1.11 31.61 306 -1.5555551923497 1.5570065800035 9.4424802961775 503.89922884406
28	78664 9888 233 170320 1.11 31.61 306 -1.4954736408896 1.476059228591 1.5250456635503 329.81907767634
27	88552 6444 233 170320 1.11 31.61 306 36.55 36.55 11184.3 408786.165
26	94996 9477 233 170320 1.11 31.61 306 89.383170318604 939.6148403106 157919.96285028 100097452.58782
25	104473 9472 233 170320 1.11 31.61 306 26.471628442235 29.751301063749 8530.1372292034 238019.30401094
23	113945 10209 233 170320 1.11 31.61 306 -0.12424054519698 0.12345092645667 0.37157101475051 2.4556937
22	124154 9474 233 170320 1.11 31.61 306 4.8776197047713 5.1830414327686 1535.8666584285 7710.8465044047
24	133628 5220 233 170320 1.11 31.61 306 1 1 306 306
36	138848 12115 1238 170212 1.297801900626 31.597809637238 304 0.099998479442 0.100011486081 30.400006216946 3.0400012487529
35	150963 12115 1238 170212 1.297801900626 31.597809637238 304 0.099998479442 0.100011486081 30.400006216946 3.0400012487529
34	163078 8192 1238 170212 1.297801900626 31.597809637238 304 1 1 304 304
33	171270 8192 1238 170212 1.297801900626 31.597809637238 304 1 1 304 304
32	179462 423 5169 166901 2 31 30 0 0 0 0
31	179885 604 5169 166901 2 31 30 0.023297 0.02625 0.784547 0.020525562709
30	180489 423 5169 166901 2 31 30 1 1 30 30
51	180912 9827 234 170321 1.11 31.61 306 -1.5092135970071 1.5122039357142 8.602042632126 477.28560860484
50	190739 9887 234 170321 1.11 31.61 306 -1.4841297343438 1.4672918322109 1.3990138954526 324.86578671082
49	200626 6444 234 170321 1.11 31.61 306 36.55 36.55 11184.3 408786.165
48	207070 9470 234 170321 1.11 31.61 306 80.383170318604 930.61737003953 155162.87032628 97276711.897746
47	216540 9466 234 170321 1.11 31.61 306 26.481984096406 29.739897711456 8530.1584194549 238017.12859011
45	226006 10574 234 170321 1.11 31.61 306 -0.010773794236499 0.012241035970902 -0.036440708096755 0.013304816748693
44	236580 9460 234 170321 1.11 31.61 306 4.9921308160752 5.0331336978487 1533.0929478078 7680.9963754497
46	246040 5220 234 170321 1.11 31.61 306 2 2 612 1224
58	251260 12155 832 170357 1.212435510355 31.612441727273 305 0.099998479432 0.100011487425 30.500004697252 3.0500009448165
57	263415 12124 1244 170218 1.297801930647 31.597809667249 304 0.099998479438 0.100011486083 30.400006216936 3.0400012487509
56	275539 8227 832 170357 1.212435510355 31.612441727273 305 2 2 610 1220
55	283766 8197 1244 170218 1.297801930647 31.597809667249 304 2 2 608 1216
54	291963 423 5170 166902 2 31 30 0 0 0 0
53	292386 604 5170 166902 2 31 30 0.023296 0.02625 0.784546 0.020525516116
52	292990 423 5170 166902 2 31 30 2 2 60 120
73	293413 9803 235 170322 1.11 31.61 306 -1.4954488811835 1.498650847703 8.1954946548147 463.03415273056
72	303216 9878 235 170322 1.11 31.61 306 -1.4697266297038 1.452249250687 1.135567991399 318.27033688904
71	313094 6444 235 170322 1.11 31.61 306 36.55 36.55 11184.3 408786.165
70	319538 9464 235 170322 1.11 31.61 306 71.383170318604 921.62076661239 152405.97483956 94506154.248391
69	329002 9477 235 170322 1.11 31.61 306 26.496775097931 29.72489769669 8530.1833863088 238014.32610086
67	338479 10430 235 170322 1.11 31.61 306 -0.021936205129379 0.021653873671916 -0.038956992892409 0.040307628495728
66	348909 9440 235 170322 1.11 31.61 306 4.9809316245654 5.0520778879205 1532.8959860557 7679.0880986404
68	358349 5220 235 170322 1.11 31.61 306 3 3 918 2754
80	363569 12115 1312 170281 1.307223960668 31.607218697258 304 0.099998479434 0.10001148239 30.399993216924 3.0399986486189
79	375684 12133 1250 170224 1.297801960667 31.597809697257 304 0.099998479435 0.100011486091 30.400006216924 3.0400012487485
78	387817 8185 1312 170281 1.307223960668 31.607218697258 304 3 3 912 2736
77	396002 8200 1250 170224 1.297801960667 31.597809697257 304 3 3 912 2736
76	404202 423 5171 166903 2 31 30 0 0 0 0
75	404625 604 5171 166903 2 31 30 0.023297 0.02625 0.784547 0.020525562709
74	405229 423 5171 166903 2 31 30 3 3 90 270
95	405652 9838 236 170323 1.11 31.61 306 -14.326322882655 1.5060862450726 -201.77491465081 2673.1346318812
94	415490 9766 236 170323 1.11 31.61 306 -9 1.4503898344376 -140.60030867208 1388.2675141821
93	425256 6444 236 170323 1.11 31.61 306 36.55 36.55 11184.3 408786.165
92	431700 9466 236 170323 1.11 31.61 306 62.383170318603 903.09753009463 149599.95580484 91695981.126201
91	441166 9453 236 170323 1.11 31.61 306 14.122833704165 29.720885409619 8430.0662664848 233482.7224872
89	450619 10390 236 170323 1.11 31.61 306 -0.013223227166304 13.693212081436 100.10576414414 931.37144253406
88	461009 9427 236 170323 1.11 31.61 306 4.9999999906323 14.249092648007 1580.0166923247 8428.713343275
90	470436 5220 236 170323 1.11 31.61 306 4 4 1224 4896
102	475656 12462 902 170439 1.235039570397 31.635045820005 305 0.099998479478 0.100011491954 30.500004729942 3.0500009513545
101	488118 12431 1256 170230 1.297801990688 31.597809758129 304 0.099998479469 0.100011490127 30.400006247775 3.0400012549188
100	500549 8537 902 170439 1.235039570397 31.635045820005 305 4 4 1220 4880
99	509086 8202 1256 170230 1.297801990688 31.597809758129 304 4 4 1216 4864
98	517288 423 5172 166904 2 31 30 0 0 0 0
97	517711 604 5172 166904 2 31 30 0.023297 0.02625 0.784547 0.020525562709
96	518315 423 5172 166904 2 31 30 4 4 120 480
139	518738 10165 238 170325 1.11 31.61 306 -2.5660013481841 1.5046152369711 -50.829735203715 523.50323951742
138	528903 10209 238 170325 1.11 31.61 306 -2.3260505307707 1.4432664551983 -39.798243950164 351.96396040458
137	539112 6750 238 170325 1.11 31.61 306 36.55 36.55 11184.3 408786.165
136	545862 9775 238 170325 1.11 31.61 306 44.383172225952 892.28308137549 144125.42895757 86472321.056575
135	555637 9780 238 170325 1.11 31.61 306 23.90659530228 29.710277846413 8505.4020896777 236720.74895826
133	565417 10658 238 170325 1.11 31.61 306 -3.71949920821 0.023301932416814 -25.834942431919 66.389531330565
132	576075 9760 238 170325 1.11 31.61 306 2.5473075583764 5.0188540387738 1520.3509726601 7572.4321662506
134	585835 5526 238 170325 1.11 31.61 306 6 6 1836 11016
146	591361 12459 970 170501 1.248712630439 31.648705855283 305 0.099998479425 0.100011482458 30.499991705178 3.049998346272
145	603820 12416 1268 170242 1.29780205073 31.597809794855 304 0.099998479432 0.100011487209 30.400006224459 3.0400012502555
144	616236 8526 970 170501 1.248712630439 31.648705855283 305 6 6 1830 10980
143	624762 8503 1268 170242 1.29780205073 31.597809794855 304 6 6 1824 10944
142	633265 453 5174 166906 2 31 30 0 0 0 0
141	633718 634 5174 166906 2 31 30 0.023297 0.02625 0.784547 0.020525562709
140	634352 453 5174 166906 2 31 30 6 6 180 1080
161	634805 10159 239 170326 1.11 31.61 306 -1.5093935057707 1.5126459046838 -23.661489757705 446.85485557438
160	644964 10225 239 170326 1.11 31.61 306 -1.4619692869356 1.4451435687519 -20.172427099119 303.71498803101
159	655189 6750 239 170326 1.11 31.61 306 36.55 36.55 11184.3 408786.165
158	661939 9783 239 170326 1.11 31.61 306 35.383171749115 884.43507775651 141374.67387151 83909707.866853
157	671722 9780 239 170326 1.11 31.61 306 25.794130797044 29.711980657047 8517.5968245246 237340.01668183
155	681502 10672 239 170326 1.11 31.61 306 -1.8642749894558 0.024254031525153 -11.796752407361 15.241629442641
154	692174 9767 239 170326 1.11 31.61 306 3.8857543288815 5.017969423983 1526.998980757 7623.6529637961
156	701941 5526 239 170326 1.11 31.61 306 7 7 2142 14994
168	707467 12464 1040 170571 1.26389366046 31.663886881135 305 0.09999847942 0.100011482459 30.499991701009 3.0499983454382
167	719931 12419 1274 170248 1.29780208075 31.597809821159 304 0.099998479432 0.100011486664 30.400006220743 3.0400012495123
166	732350 8527 1040 170571 1.26389366046 31.663886881135 305 7 7 2135 14945
165	740877 8499 1274 170248 1.29780208075 31.597809821159 304 7 7 2128 14896
164	749376 453 5175 166907 2 31 30 0 0 0 0
163	749829 634 5175 166907 2 31 30 0.023297 0.02625 0.784547 0.020525562709
162	750463 453 5175 166907 2 31 30 7 7 210 1470
110	750916 9803 237 170603 1.11 31.67 307 0 5.0458383433935 1507.6825910765 7499.4838376911
111	760719 10677 237 170603 1.11 31.67 307 -6.1943987136692 0.02093092803203 -53.502914363041 233.67118867624
112	771396 5545 237 170603 1.11 31.67 307 5 5 1535 7675
113	776941 9812 237 170603 1.11 31.67 307 19.833709500147 29.717930080183 8498.614494721 235864.53139849
114	786753 9809 237 170603 1.11 31.67 307 53.383172225952 899.94953231717 147769.19703646 89881470.247531
115	796562 6773 237 170603 1.11 31.67 307 36.55 36.55 11220.85 410122.0675
116	803335 10245 237 170603 1.11 31.67 307 -5.2197858740417 1.448484696278 -83.650526132102 632.80316646596
117	813580 10182 237 170603 1.11 31.67 307 -6.6438580641968 1.5300606455115 -111.84326429906 1005.0872225272
118	823762 453 5173 166905 2 31 30 5 5 150 750
119	824215 634 5173 166905 2 31 30 0.023297 0.02625 0.784547 0.020525562709
120	824849 453 5173 166905 2 31 30 0 0 0 0
121	825302 8514 1262 170236 1.297802020709 31.597809773016 304 5 5 1520 7600
122	833816 8504 1178 170146 1.297388780543 31.597383470973 304 5 5 1520 7600
123	842320 12438 1262 170236 1.297802020709 31.597809773016 304 0.099998479443 0.100011488321 30.400006232641 3.0400012518919
124	854758 12431 1178 170146 1.297388780543 31.597383470973 304 0.099998477727 0.100011482451 30.399993170764 3.039998639387
