file 890913 1512144148                                          
version 2
run SinusoidalAccInjectionAttack-243-20171201-17:02:11-96173
attr CACCSpacing 5
attr attackAcc 30
attr attackPos 7
attr attackSpeed 150
attr attackStart 30
attr attacker 4
attr beaconInterval 0.1
attr configname SinusoidalAccInjectionAttack
attr controller 1
attr datetime 20171201-17:02:11
attr experiment SinusoidalAccInjectionAttack
attr fakeAcc "(4 == 4)"
attr fakePos "(4 == 2)"
attr fakeSpeed "(4 == 3)"
attr inifile omnetpp_243.ini
attr iterationvars "$attacker=4, $attackSpeed=150, $attackPos=7, $attackAcc=30, $leaderSpeed=50, $controller=1, $CACCSpacing=5, $sController=\"CACC\", $attackStart=30, $0=5, $1=0, $nCars=8, $platoonSize=8, $nLanes=1, $beaconInterval=0.1, $priority=2, $packetSize=200, $ploegH=0.5, $leaderHeadway=1.2, $fakeSpeed=(4 == 3), $fakeAcc=(4 == 4), $fakePos=(4 == 2)"
attr iterationvarsf attacker=4,attackSpeed=150,attackPos=7,attackAcc=30,leaderSpeed=50,controller=1,CACCSpacing=5,sController=CACC,attackStart=30,5,0,nCars=8,platoonSize=8,nLanes=1,beaconInterval=0.1,priority=2,packetSize=200,ploegH=0.5,leaderHeadway=1.2,fakeSpeed=(4_==_3),fakeAcc=(4_==_4),fakePos=(4_==_2)-
attr leaderHeadway 1.2
attr leaderSpeed 50
attr measurement "$attacker=4, $attackSpeed=150, $attackPos=7, $attackAcc=30, $leaderSpeed=50, $controller=1, $CACCSpacing=5, $sController=\"CACC\", $attackStart=30, $0=5, $1=0, $nCars=8, $platoonSize=8, $nLanes=1, $beaconInterval=0.1, $priority=2, $packetSize=200, $ploegH=0.5, $leaderHeadway=1.2, $fakeSpeed=(4 == 3), $fakeAcc=(4 == 4), $fakePos=(4 == 2)"
attr nCars 8
attr nLanes 1
attr network scenario
attr packetSize 200
attr platoonSize 8
attr ploegH 0.5
attr priority 2
attr processid 96173
attr repetition 3
attr replication #3
attr resultdir results
attr runnumber 243
attr sController "\"CACC\""
attr seedset 3
param **.coreDebug false
param **.debug false
param **.headway 0.1s
param **.numberOfCars 8
param **.numberOfCarsPerPlatoon 8
param **.numberOfLanes 1
param **.numericController 1
param **.traffic.nCars 8
param **.traffic.nLanes 1
param **.traffic.platoonInsertDistance 5m
param **.traffic.platoonInsertHeadway 0s
param **.traffic.platoonInsertSpeed 50kmph
param **.traffic.platoonInsertTime "1 s"
param **.traffic.platoonLeaderHeadway 1.2s
param **.traffic.platoonSize 8
param **.traffic.platooningVType "\"vtypeauto\""
param **.traffic_type "\"PlatoonsTrafficManager\""
param *.**.nic.mac1609_4.bitrate 6Mbps
param *.**.nic.mac1609_4.txPower 100mW
param *.**.nic.mac1609_4.useServiceChannel false
param *.**.nic.phy80211p.analogueModels "xmldoc(\"config.xml\")"
param *.**.nic.phy80211p.decider "xmldoc(\"config.xml\")"
param *.**.nic.phy80211p.maxTXPower 100mW
param *.**.nic.phy80211p.sensitivity -94dBm
param *.**.nic.phy80211p.thermalNoise -95dBm
param *.**.nic.phy80211p.usePropagationDelay true
param *.**.nic.phy80211p.useThermalNoise true
param *.annotations.draw false
param *.connectionManager.alpha 2.0
param *.connectionManager.carrierFrequency "5.890e9 Hz"
param *.connectionManager.pMax 100mW
param *.connectionManager.sat -94dBm
param *.connectionManager.sendDirect true
param *.manager.autoShutdown true
param *.manager.commandLine "\"sumo --remote-port $port --seed $seed --configuration-file $configFile\""
param *.manager.configFile "\"./sumocfg/freeway.sumo.cfg\""
param *.manager.host "\"localhost\""
param *.manager.margin 25
param *.manager.moduleDisplayString "\"\""
param *.manager.moduleName "\"node\""
param *.manager.moduleType "\"Car\""
param *.manager.updateInterval 0.01s
param *.node[*].appl.attackStart 30s
param *.node[*].appl.attackerType 4
param *.node[*].appl.simulationDuration "60 s"
param *.node[*].appl_type "\"SimplePlatooningApp\""
param *.node[*].helper.nCars 8
param *.node[*].helper.nLanes 1
param *.node[*].helper.platoonSize 8
param *.node[*].helper_type "\"PositionHelper\""
param *.node[*].mobility.x 0
param *.node[*].mobility.y 0
param *.node[*].mobility.z 1.895
param *.node[*].prot.attackStart 30s
param *.node[*].prot.attackerType 4
param *.node[*].prot.attackingNode 3
param *.node[*].prot.beaconingInterval 0.1s
param *.node[*].prot.fakeAcc "(4 == 4)"
param *.node[*].prot.fakePos "(4 == 2)"
param *.node[*].prot.fakeSpeed "(4 == 3)"
param *.node[*].prot.maliciousAcc "30 mpss"
param *.node[*].prot.maliciousSpeed 150kmph
param *.node[*].prot.packetSize 200
param *.node[*].prot.priority 2
param *.node[*].prot.shiftX "7 m"
param *.node[*].prot.useControllerAcceleration true
param *.node[*].protocol_type "\"SimplePlatooningBeaconing\""
param *.node[*].scenario.accHeadway 0.1s
param *.node[*].scenario.caccC1 0.5
param *.node[*].scenario.caccOmegaN "0.2 Hz"
param *.node[*].scenario.caccSpacing 5m
param *.node[*].scenario.caccXi 1
param *.node[*].scenario.controller "\"CACC\""
param *.node[*].scenario.engineTau "0.5 s"
param *.node[*].scenario.leaderHeadway 1.2s
param *.node[*].scenario.leaderSpeed 50kmph
param *.node[*].scenario.ploegH 0.5s
param *.node[*].scenario.ploegKd 0.7
param *.node[*].scenario.ploegKp 0.2
param *.node[*].scenario.useRealisticEngine false
param *.node[*].scenario_type "\"SinusoidalScenario\""
param *.node[*].unicast.packetLossRate 0
param *.obstacles.debug false
param *.playgroundSizeX 65000m
param *.playgroundSizeY 25000m
param *.playgroundSizeZ 50m
param *.world.use2D false
param *.world.useTorus false

vector 0  scenario.node[0].appl  distance  ETV
vector 1  scenario.node[0].appl  relativeSpeed  ETV
vector 2  scenario.node[0].appl  nodeId  ETV
vector 6  scenario.node[0].appl  acceleration  ETV
vector 7  scenario.node[0].appl  controllerAcceleration  ETV
vector 3  scenario.node[0].appl  speed  ETV
vector 4  scenario.node[0].appl  posx  ETV
vector 5  scenario.node[0].appl  posy  ETV
vector 22  scenario.node[1].appl  distance  ETV
vector 23  scenario.node[1].appl  relativeSpeed  ETV
vector 24  scenario.node[1].appl  nodeId  ETV
vector 28  scenario.node[1].appl  acceleration  ETV
vector 29  scenario.node[1].appl  controllerAcceleration  ETV
vector 25  scenario.node[1].appl  speed  ETV
vector 26  scenario.node[1].appl  posx  ETV
vector 27  scenario.node[1].appl  posy  ETV
vector 44  scenario.node[2].appl  distance  ETV
vector 45  scenario.node[2].appl  relativeSpeed  ETV
vector 46  scenario.node[2].appl  nodeId  ETV
vector 50  scenario.node[2].appl  acceleration  ETV
vector 51  scenario.node[2].appl  controllerAcceleration  ETV
vector 47  scenario.node[2].appl  speed  ETV
vector 48  scenario.node[2].appl  posx  ETV
vector 49  scenario.node[2].appl  posy  ETV
vector 66  scenario.node[3].appl  distance  ETV
vector 67  scenario.node[3].appl  relativeSpeed  ETV
vector 68  scenario.node[3].appl  nodeId  ETV
vector 72  scenario.node[3].appl  acceleration  ETV
vector 73  scenario.node[3].appl  controllerAcceleration  ETV
vector 69  scenario.node[3].appl  speed  ETV
vector 70  scenario.node[3].appl  posx  ETV
vector 71  scenario.node[3].appl  posy  ETV
vector 88  scenario.node[4].appl  distance  ETV
vector 89  scenario.node[4].appl  relativeSpeed  ETV
vector 90  scenario.node[4].appl  nodeId  ETV
vector 94  scenario.node[4].appl  acceleration  ETV
vector 95  scenario.node[4].appl  controllerAcceleration  ETV
vector 91  scenario.node[4].appl  speed  ETV
vector 92  scenario.node[4].appl  posx  ETV
vector 93  scenario.node[4].appl  posy  ETV
vector 110  scenario.node[5].appl  distance  ETV
vector 111  scenario.node[5].appl  relativeSpeed  ETV
vector 112  scenario.node[5].appl  nodeId  ETV
vector 116  scenario.node[5].appl  acceleration  ETV
vector 117  scenario.node[5].appl  controllerAcceleration  ETV
vector 113  scenario.node[5].appl  speed  ETV
vector 114  scenario.node[5].appl  posx  ETV
vector 115  scenario.node[5].appl  posy  ETV
vector 132  scenario.node[6].appl  distance  ETV
vector 133  scenario.node[6].appl  relativeSpeed  ETV
vector 134  scenario.node[6].appl  nodeId  ETV
vector 138  scenario.node[6].appl  acceleration  ETV
vector 139  scenario.node[6].appl  controllerAcceleration  ETV
vector 135  scenario.node[6].appl  speed  ETV
vector 136  scenario.node[6].appl  posx  ETV
vector 137  scenario.node[6].appl  posy  ETV
vector 154  scenario.node[7].appl  distance  ETV
vector 155  scenario.node[7].appl  relativeSpeed  ETV
vector 156  scenario.node[7].appl  nodeId  ETV
vector 160  scenario.node[7].appl  acceleration  ETV
vector 161  scenario.node[7].appl  controllerAcceleration  ETV
vector 157  scenario.node[7].appl  speed  ETV
vector 158  scenario.node[7].appl  posx  ETV
vector 159  scenario.node[7].appl  posy  ETV
vector 35  scenario.node[1].prot  leaderDelay  ETV
vector 33  scenario.node[1].prot  leaderDelayId  ETV
vector 36  scenario.node[1].prot  frontDelay  ETV
vector 34  scenario.node[1].prot  frontDelayId  ETV
vector 57  scenario.node[2].prot  leaderDelay  ETV
vector 55  scenario.node[2].prot  leaderDelayId  ETV
vector 79  scenario.node[3].prot  leaderDelay  ETV
vector 77  scenario.node[3].prot  leaderDelayId  ETV
vector 101  scenario.node[4].prot  leaderDelay  ETV
vector 99  scenario.node[4].prot  leaderDelayId  ETV
vector 123  scenario.node[5].prot  leaderDelay  ETV
vector 121  scenario.node[5].prot  leaderDelayId  ETV
vector 145  scenario.node[6].prot  leaderDelay  ETV
vector 143  scenario.node[6].prot  leaderDelayId  ETV
vector 167  scenario.node[7].prot  leaderDelay  ETV
vector 165  scenario.node[7].prot  leaderDelayId  ETV
vector 168  scenario.node[7].prot  frontDelay  ETV
vector 166  scenario.node[7].prot  frontDelayId  ETV
vector 58  scenario.node[2].prot  frontDelay  ETV
vector 56  scenario.node[2].prot  frontDelayId  ETV
vector 124  scenario.node[5].prot  frontDelay  ETV
vector 122  scenario.node[5].prot  frontDelayId  ETV
vector 80  scenario.node[3].prot  frontDelay  ETV
vector 78  scenario.node[3].prot  frontDelayId  ETV
vector 146  scenario.node[6].prot  frontDelay  ETV
vector 144  scenario.node[6].prot  frontDelayId  ETV
vector 102  scenario.node[4].prot  frontDelay  ETV
vector 100  scenario.node[4].prot  frontDelayId  ETV
vector 8  scenario.node[0].prot  nodeId  ETV
vector 9  scenario.node[0].prot  busyTime  ETV
vector 10  scenario.node[0].prot  collisions  ETV
vector 30  scenario.node[1].prot  nodeId  ETV
vector 31  scenario.node[1].prot  busyTime  ETV
vector 32  scenario.node[1].prot  collisions  ETV
vector 52  scenario.node[2].prot  nodeId  ETV
vector 53  scenario.node[2].prot  busyTime  ETV
vector 54  scenario.node[2].prot  collisions  ETV
vector 74  scenario.node[3].prot  nodeId  ETV
vector 75  scenario.node[3].prot  busyTime  ETV
vector 76  scenario.node[3].prot  collisions  ETV
vector 96  scenario.node[4].prot  nodeId  ETV
vector 97  scenario.node[4].prot  busyTime  ETV
vector 98  scenario.node[4].prot  collisions  ETV
vector 118  scenario.node[5].prot  nodeId  ETV
vector 119  scenario.node[5].prot  busyTime  ETV
vector 120  scenario.node[5].prot  collisions  ETV
vector 140  scenario.node[6].prot  nodeId  ETV
vector 141  scenario.node[6].prot  busyTime  ETV
vector 142  scenario.node[6].prot  collisions  ETV
vector 162  scenario.node[7].prot  nodeId  ETV
vector 163  scenario.node[7].prot  busyTime  ETV
vector 164  scenario.node[7].prot  collisions  ETV
7	11071 7505 232 174783 1.11 32.41 314 -1.5 1.5 15.013995601398 492.20208521524
6	18576 9834 232 174783 1.11 32.41 314 -1.472274679513 1.4513407705126 12.498142468325 335.41954670747
5	28410 6306 232 174783 1.11 32.41 314 36.55 36.55 11476.7 419473.385
4	34716 9423 232 174783 1.11 32.41 314 103.73484382616 542.13619694734 101800.38906407 38068416.647966
3	44139 9414 232 174783 1.11 32.41 314 12.59914837223 15.853603639796 4398.3358461312 61839.639665133
1	53553 5050 232 174783 1.11 32.41 314 0 0 0 0
0	58603 5364 232 174783 1.11 32.41 314 -1 -1 -314 314
2	63967 5050 232 174783 1.11 32.41 314 0 0 0 0
10	69017 438 5056 172366 2 32 31 0 0 0 0
9	69455 798 5056 172366 2 32 31 0.022754155264 0.026262199507 0.810256234761 0.021189736070796
8	70253 407 5056 172366 2 32 31 0 0 0 0
29	70660 10089 233 174784 1.11 32.41 314 -1.5233934268137 1.5241492075817 15.645214491497 499.15042520277
28	80749 10141 233 174784 1.11 32.41 314 -1.4872877097888 1.4632119896703 12.162385138658 338.94601724994
27	90890 6620 233 174784 1.11 32.41 314 36.55 36.55 11476.7 419473.385
26	97510 9731 233 174784 1.11 32.41 314 94.734843826294 533.04829008686 98971.906441969 36260485.106296
25	107241 9721 233 174784 1.11 32.41 314 12.591606548197 15.859016035216 4397.4435956737 61816.697453633
23	116962 10621 233 174784 1.11 32.41 314 -0.085370614405605 0.085492913328835 0.76726903291214 1.2153876753078
22	127583 9729 233 174784 1.11 32.41 314 4.9094713952348 5.1291545418569 1572.4647770872 7875.7751277815
24	137312 5364 233 174784 1.11 32.41 314 1 1 314 314
36	142676 12405 836 174274 1.269557810561 32.36955511307 312 0.099998713336 0.100011783718 31.199996083049 3.119999221056
35	155081 12405 836 174274 1.269557810561 32.36955511307 312 0.099998713336 0.100011783718 31.199996083049 3.119999221056
34	167486 8424 836 174274 1.269557810561 32.36955511307 312 1 1 312 312
33	175910 8424 836 174274 1.269557810561 32.36955511307 312 1 1 312 312
32	184334 438 5057 172367 2 32 31 0 0 0 0
31	184772 834 5057 172367 2 32 31 0.022754185285 0.026262199235 0.810256264976 0.021189737447179
30	185606 438 5057 172367 2 32 31 1 1 31 31
51	186044 10112 234 174785 1.11 32.41 314 -1.5293286418104 1.5293868305991 15.677580325477 500.70380099207
50	196156 10157 234 174785 1.11 32.41 314 -1.4784118006608 1.4535038993126 12.004818226031 335.68492146215
49	206313 6620 234 174785 1.11 32.41 314 36.55 36.55 11476.7 419473.385
48	212933 9722 234 174785 1.11 32.41 314 85.734847640991 524.03345751491 96144.694309325 34503930.856754
47	222655 9725 234 174785 1.11 32.41 314 12.59754485716 15.852838000542 4397.2895232638 61810.003424105
45	232380 10834 234 174785 1.11 32.41 314 -0.011889282479549 0.011086345333856 0.032448558422153 0.01112010350529
44	243214 9723 234 174785 1.11 32.41 314 4.9825738023807 5.0363330440238 1571.209051196 7862.150736434
46	252937 5364 234 174785 1.11 32.41 314 2 2 628 1256
58	258301 12416 1046 174478 1.299189200831 32.399186487749 312 0.09999871186 0.100011783506 31.199996067458 3.1199992179375
57	270717 12412 842 174280 1.269557840582 32.369555143137 312 0.099998713342 0.100011783715 31.199996083095 3.1199992210652
56	283129 8426 1046 174478 1.299189200831 32.399186487749 312 2 2 624 1248
55	291555 8423 842 174280 1.269557840582 32.369555143137 312 2 2 624 1248
54	299978 438 5058 172368 2 32 31 0 0 0 0
53	300416 833 5058 172368 2 32 31 0.022754215306 0.026262199165 0.810256295016 0.021189738814383
52	301249 438 5058 172368 2 32 31 2 2 62 124
73	301687 10088 235 174786 1.11 32.41 314 -1.4888807629826 1.4893729116495 15.503701532387 467.30799253052
72	311775 10135 235 174786 1.11 32.41 314 -1.4638941721065 1.4373649683776 11.661518557177 328.58708252696
71	321910 6620 235 174786 1.11 32.41 314 36.55 36.55 11476.7 419473.385
70	328530 9729 235 174786 1.11 32.41 314 76.734847640991 515.00610962067 93317.52508864 32798605.534444
69	338259 9734 235 174786 1.11 32.41 314 12.612456069581 15.839340167311 4397.0036629804 61797.257311931
67	347993 10647 235 174786 1.11 32.41 314 -0.037725855830377 0.033958280317069 0.16581210119599 0.13511566018618
66	358640 9685 235 174786 1.11 32.41 314 4.9599643837865 5.0696737340895 1571.163503479 7861.8635553152
68	368325 5364 235 174786 1.11 32.41 314 3 3 942 2826
80	373689 12423 1180 174619 1.300210350935 32.40020760616 312 0.099998709601 0.100011783603 31.199996035765 3.1199992115988
79	386112 12392 848 174286 1.269557870602 32.369555173243 312 0.099998713356 0.10001178371 31.199996083181 3.1199992210824
78	398504 8426 1180 174619 1.300210350935 32.40020760616 312 3 3 936 2808
77	406930 8416 848 174286 1.269557870602 32.369555173243 312 3 3 936 2808
76	415346 438 5059 172369 2 32 31 0 0 0 0
75	415784 831 5059 172369 2 32 31 0.022753185285 0.026262199305 0.810255264965 0.021189691939233
74	416615 438 5059 172369 2 32 31 3 3 93 279
117	417053 10418 237 174788 1.11 32.41 314 -1.5014801125961 8.6357906317897 175.95090215579 1959.2432101469
116	427471 10296 237 174788 1.11 32.41 314 -1.4472993298538 2.5 43.968746159415 430.58275339615
115	437767 6934 237 174788 1.11 32.41 314 36.55 36.55 11476.7 419473.385
114	444701 10038 237 174788 1.11 32.41 314 58.734847640991 501.00952128441 87697.480337007 29573834.62838
113	454739 10010 237 174788 1.11 32.41 314 12.630484248265 18.17435420073 4438.1559090611 63036.876607926
111	464749 10945 237 174788 1.11 32.41 314 -0.017702978475507 0.34812031103022 8.231286272317 2.8139190590249
110	475694 10013 237 174788 1.11 32.41 314 4.9953955579608 5.8503863574701 1581.5112360673 7970.9907672185
112	485707 5678 237 174788 1.11 32.41 314 5 5 1570 7850
124	491385 12723 1112 174550 1.299602290893 32.399599564757 312 0.099998710848 0.10001178386 31.199996054404 3.119999215326
123	504108 12723 860 174298 1.269557930644 32.369555220454 312 0.099998712346 0.100011783712 31.19999607035 3.1199992185162
122	516831 8737 1112 174550 1.299602290893 32.399599564757 312 5 5 1560 7800
121	525568 8737 860 174298 1.269557930644 32.369555220454 312 5 5 1560 7800
120	534305 469 5061 172371 2 32 31 0 0 0 0
119	534774 864 5061 172371 2 32 31 0.022753125244 0.026262199367 0.810255214226 0.021189689695335
118	535638 469 5061 172371 2 32 31 5 5 155 775
139	536107 10366 238 174789 1.11 32.41 314 -1.4833385430191 5.0486173033465 89.996448218138 896.17910984324
138	546473 10291 238 174789 1.11 32.41 314 -1.4512379829322 2.5 41.415738670499 426.81288546135
137	556764 6934 238 174789 1.11 32.41 314 36.55 36.55 11476.7 419473.385
136	563698 10037 238 174789 1.11 32.41 314 49.734845733643 491.4484994117 84863.739332183 28013599.708122
135	573735 10047 238 174789 1.11 32.41 314 12.620670633095 17.923702611547 4432.4582598836 62864.006038072
133	583782 10884 238 174789 1.11 32.41 314 -0.04212532624887 0.22565158918214 5.2579617159044 1.3117231060252
132	594666 10042 238 174789 1.11 32.41 314 4.9651253537684 5.5560088409224 1577.62705184 7928.8013865227
134	604708 5678 238 174789 1.11 32.41 314 6 6 1884 11304
146	610386 12724 1249 174682 1.305615440997 32.405612684942 312 0.099998708659 0.100011783872 31.199996024485 3.1199992093423
145	623110 12725 866 174304 1.269557960665 32.369555252304 312 0.099998712429 0.100011783717 31.199996072179 3.119999218882
144	635835 8743 1249 174682 1.305615440997 32.405612684942 312 6 6 1872 11232
143	644578 8743 866 174304 1.269557960665 32.369555252304 312 6 6 1872 11232
142	653321 469 5062 172372 2 32 31 0 0 0 0
141	653790 864 5062 172372 2 32 31 0.022754095223 0.026262199288 0.810256182685 0.021189733756583
140	654654 469 5062 172372 2 32 31 6 6 186 1116
161	655123 10406 239 174790 1.11 32.41 314 -1.5021746591738 3.3262567811917 53.751880931411 644.19578217614
160	665529 10356 239 174790 1.11 32.41 314 -1.4497273603782 2.5 35.864470906249 406.65721505701
159	675885 6934 239 174790 1.11 32.41 314 36.55 36.55 11476.7 419473.385
158	682819 10048 239 174790 1.11 32.41 314 40.734846687317 481.46751883401 82026.438668542 26501383.716864
157	692867 10035 239 174790 1.11 32.41 314 12.624472422829 17.381721904428 4422.4553964109 62556.463534089
155	702902 11136 239 174790 1.11 32.41 314 -0.0042090055620196 0.51698070711895 9.5887060860525 4.3664927135837
154	714038 10043 239 174790 1.11 32.41 314 4.9913541425989 5.9701409635492 1581.1006063723 7967.5171413029
156	724081 5678 239 174790 1.11 32.41 314 7 7 2198 15386
168	729759 12717 980 174418 1.292107050727 32.392104351985 312 0.099998712952 0.100011783772 31.199996081798 3.119999220805
167	742476 12720 872 174310 1.269557990685 32.369555285507 312 0.099998712602 0.100011783716 31.199996075362 3.1199992195186
166	755196 8728 980 174418 1.292107050727 32.392104351985 312 7 7 2184 15288
165	763924 8732 872 174310 1.269557990685 32.369555285507 312 7 7 2184 15288
164	772656 469 5063 172373 2 32 31 0 0 0 0
163	773125 864 5063 172373 2 32 31 0.022754065202 0.026262199331 0.810256150108 0.021189732256197
162	773989 469 5063 172373 2 32 31 7 7 217 1519
88	774458 9707 236 174799 1.11 32.45 315 0 5.0337963691636 1527.3565604875 7558.0169614247
89	784165 10807 236 174799 1.11 32.45 315 -3.6218935334071 0.013354581546668 -53.597790485455 138.96309648307
90	794972 5382 236 174799 1.11 32.45 315 4 4 1260 5040
91	800354 9728 236 174799 1.11 32.45 315 12.624166164899 18.64747451176 4465.5104192586 63657.642923787
92	810082 9763 236 174799 1.11 32.45 315 67.734847640991 511.61276902857 91046.778482816 31450489.484927
93	819845 6642 236 174799 1.11 32.45 315 36.55 36.55 11513.25 420809.2875
94	826487 10003 236 174799 1.11 32.45 315 -1.453675888078 2.5 50.074941342057 449.07333294788
95	836490 10110 236 174799 1.11 32.45 315 -1.4835633709684 15.597024795467 351.31125385585 5791.3593923599
96	846600 438 5060 172370 2 32 31 4 4 124 496
97	847038 835 5060 172370 2 32 31 0.022754155264 0.026262199361 0.810256246585 0.021189736691539
98	847873 438 5060 172370 2 32 31 0 0 0 0
99	848311 8422 854 174292 1.269557900623 32.369555187634 312 4 4 1248 4992
100	856733 8738 1312 174745 1.306028501039 32.406051713774 312 4 4 1248 4992
101	865471 12715 854 174292 1.269557900623 32.369555187634 312 0.099998712221 0.10001178371 31.199996067551 3.1199992179564
102	878186 12727 1312 174745 1.306028501039 32.406051713774 312 0.099907778906 0.100089782295 31.199956993275 3.1199919296302
