file 958632 1512143880                                          
version 2
run SinusoidalAccInjectionAttack-189-20171201-16:57:42-11309
attr CACCSpacing 20
attr attackAcc 10
attr attackPos 7
attr attackSpeed 150
attr attackStart 30
attr attacker 4
attr beaconInterval 0.1
attr configname SinusoidalAccInjectionAttack
attr controller 1
attr datetime 20171201-16:57:42
attr experiment SinusoidalAccInjectionAttack
attr fakeAcc "(4 == 4)"
attr fakePos "(4 == 2)"
attr fakeSpeed "(4 == 3)"
attr inifile omnetpp_189.ini
attr iterationvars "$attacker=4, $attackSpeed=150, $attackPos=7, $attackAcc=10, $leaderSpeed=50, $controller=1, $CACCSpacing=20, $sController=\"CACC\", $attackStart=30, $0=20, $1=0, $nCars=8, $platoonSize=8, $nLanes=1, $beaconInterval=0.1, $priority=2, $packetSize=200, $ploegH=0.5, $leaderHeadway=1.2, $fakeSpeed=(4 == 3), $fakeAcc=(4 == 4), $fakePos=(4 == 2)"
attr iterationvarsf attacker=4,attackSpeed=150,attackPos=7,attackAcc=10,leaderSpeed=50,controller=1,CACCSpacing=20,sController=CACC,attackStart=30,20,0,nCars=8,platoonSize=8,nLanes=1,beaconInterval=0.1,priority=2,packetSize=200,ploegH=0.5,leaderHeadway=1.2,fakeSpeed=(4_==_3),fakeAcc=(4_==_4),fakePos=(4_==_2)-
attr leaderHeadway 1.2
attr leaderSpeed 50
attr measurement "$attacker=4, $attackSpeed=150, $attackPos=7, $attackAcc=10, $leaderSpeed=50, $controller=1, $CACCSpacing=20, $sController=\"CACC\", $attackStart=30, $0=20, $1=0, $nCars=8, $platoonSize=8, $nLanes=1, $beaconInterval=0.1, $priority=2, $packetSize=200, $ploegH=0.5, $leaderHeadway=1.2, $fakeSpeed=(4 == 3), $fakeAcc=(4 == 4), $fakePos=(4 == 2)"
attr nCars 8
attr nLanes 1
attr network scenario
attr packetSize 200
attr platoonSize 8
attr ploegH 0.5
attr priority 2
attr processid 11309
attr repetition 4
attr replication #4
attr resultdir results
attr runnumber 189
attr sController "\"CACC\""
attr seedset 4
param **.coreDebug false
param **.debug false
param **.headway 0.1s
param **.numberOfCars 8
param **.numberOfCarsPerPlatoon 8
param **.numberOfLanes 1
param **.numericController 1
param **.traffic.nCars 8
param **.traffic.nLanes 1
param **.traffic.platoonInsertDistance 20m
param **.traffic.platoonInsertHeadway 0s
param **.traffic.platoonInsertSpeed 50kmph
param **.traffic.platoonInsertTime "1 s"
param **.traffic.platoonLeaderHeadway 1.2s
param **.traffic.platoonSize 8
param **.traffic.platooningVType "\"vtypeauto\""
param **.traffic_type "\"PlatoonsTrafficManager\""
param *.**.nic.mac1609_4.bitrate 6Mbps
param *.**.nic.mac1609_4.txPower 100mW
param *.**.nic.mac1609_4.useServiceChannel false
param *.**.nic.phy80211p.analogueModels "xmldoc(\"config.xml\")"
param *.**.nic.phy80211p.decider "xmldoc(\"config.xml\")"
param *.**.nic.phy80211p.maxTXPower 100mW
param *.**.nic.phy80211p.sensitivity -94dBm
param *.**.nic.phy80211p.thermalNoise -95dBm
param *.**.nic.phy80211p.usePropagationDelay true
param *.**.nic.phy80211p.useThermalNoise true
param *.annotations.draw false
param *.connectionManager.alpha 2.0
param *.connectionManager.carrierFrequency "5.890e9 Hz"
param *.connectionManager.pMax 100mW
param *.connectionManager.sat -94dBm
param *.connectionManager.sendDirect true
param *.manager.autoShutdown true
param *.manager.commandLine "\"sumo --remote-port $port --seed $seed --configuration-file $configFile\""
param *.manager.configFile "\"./sumocfg/freeway.sumo.cfg\""
param *.manager.host "\"localhost\""
param *.manager.margin 25
param *.manager.moduleDisplayString "\"\""
param *.manager.moduleName "\"node\""
param *.manager.moduleType "\"Car\""
param *.manager.updateInterval 0.01s
param *.node[*].appl.attackStart 30s
param *.node[*].appl.attackerType 4
param *.node[*].appl.simulationDuration "60 s"
param *.node[*].appl_type "\"SimplePlatooningApp\""
param *.node[*].helper.nCars 8
param *.node[*].helper.nLanes 1
param *.node[*].helper.platoonSize 8
param *.node[*].helper_type "\"PositionHelper\""
param *.node[*].mobility.x 0
param *.node[*].mobility.y 0
param *.node[*].mobility.z 1.895
param *.node[*].prot.attackStart 30s
param *.node[*].prot.attackerType 4
param *.node[*].prot.attackingNode 3
param *.node[*].prot.beaconingInterval 0.1s
param *.node[*].prot.fakeAcc "(4 == 4)"
param *.node[*].prot.fakePos "(4 == 2)"
param *.node[*].prot.fakeSpeed "(4 == 3)"
param *.node[*].prot.maliciousAcc "10 mpss"
param *.node[*].prot.maliciousSpeed 150kmph
param *.node[*].prot.packetSize 200
param *.node[*].prot.priority 2
param *.node[*].prot.shiftX "7 m"
param *.node[*].prot.useControllerAcceleration true
param *.node[*].protocol_type "\"SimplePlatooningBeaconing\""
param *.node[*].scenario.accHeadway 0.1s
param *.node[*].scenario.caccC1 0.5
param *.node[*].scenario.caccOmegaN "0.2 Hz"
param *.node[*].scenario.caccSpacing 20m
param *.node[*].scenario.caccXi 1
param *.node[*].scenario.controller "\"CACC\""
param *.node[*].scenario.engineTau "0.5 s"
param *.node[*].scenario.leaderHeadway 1.2s
param *.node[*].scenario.leaderSpeed 50kmph
param *.node[*].scenario.ploegH 0.5s
param *.node[*].scenario.ploegKd 0.7
param *.node[*].scenario.ploegKp 0.2
param *.node[*].scenario.useRealisticEngine false
param *.node[*].scenario_type "\"SinusoidalScenario\""
param *.node[*].unicast.packetLossRate 0
param *.obstacles.debug false
param *.playgroundSizeX 65000m
param *.playgroundSizeY 25000m
param *.playgroundSizeZ 50m
param *.world.use2D false
param *.world.useTorus false

vector 0  scenario.node[0].appl  distance  ETV
vector 1  scenario.node[0].appl  relativeSpeed  ETV
vector 2  scenario.node[0].appl  nodeId  ETV
vector 6  scenario.node[0].appl  acceleration  ETV
vector 7  scenario.node[0].appl  controllerAcceleration  ETV
vector 3  scenario.node[0].appl  speed  ETV
vector 4  scenario.node[0].appl  posx  ETV
vector 5  scenario.node[0].appl  posy  ETV
vector 22  scenario.node[1].appl  distance  ETV
vector 23  scenario.node[1].appl  relativeSpeed  ETV
vector 24  scenario.node[1].appl  nodeId  ETV
vector 28  scenario.node[1].appl  acceleration  ETV
vector 29  scenario.node[1].appl  controllerAcceleration  ETV
vector 25  scenario.node[1].appl  speed  ETV
vector 26  scenario.node[1].appl  posx  ETV
vector 27  scenario.node[1].appl  posy  ETV
vector 44  scenario.node[2].appl  distance  ETV
vector 45  scenario.node[2].appl  relativeSpeed  ETV
vector 46  scenario.node[2].appl  nodeId  ETV
vector 50  scenario.node[2].appl  acceleration  ETV
vector 51  scenario.node[2].appl  controllerAcceleration  ETV
vector 47  scenario.node[2].appl  speed  ETV
vector 48  scenario.node[2].appl  posx  ETV
vector 49  scenario.node[2].appl  posy  ETV
vector 66  scenario.node[3].appl  distance  ETV
vector 67  scenario.node[3].appl  relativeSpeed  ETV
vector 68  scenario.node[3].appl  nodeId  ETV
vector 72  scenario.node[3].appl  acceleration  ETV
vector 73  scenario.node[3].appl  controllerAcceleration  ETV
vector 69  scenario.node[3].appl  speed  ETV
vector 70  scenario.node[3].appl  posx  ETV
vector 71  scenario.node[3].appl  posy  ETV
vector 88  scenario.node[4].appl  distance  ETV
vector 89  scenario.node[4].appl  relativeSpeed  ETV
vector 90  scenario.node[4].appl  nodeId  ETV
vector 94  scenario.node[4].appl  acceleration  ETV
vector 95  scenario.node[4].appl  controllerAcceleration  ETV
vector 91  scenario.node[4].appl  speed  ETV
vector 92  scenario.node[4].appl  posx  ETV
vector 93  scenario.node[4].appl  posy  ETV
vector 110  scenario.node[5].appl  distance  ETV
vector 111  scenario.node[5].appl  relativeSpeed  ETV
vector 112  scenario.node[5].appl  nodeId  ETV
vector 116  scenario.node[5].appl  acceleration  ETV
vector 117  scenario.node[5].appl  controllerAcceleration  ETV
vector 113  scenario.node[5].appl  speed  ETV
vector 114  scenario.node[5].appl  posx  ETV
vector 115  scenario.node[5].appl  posy  ETV
vector 132  scenario.node[6].appl  distance  ETV
vector 133  scenario.node[6].appl  relativeSpeed  ETV
vector 134  scenario.node[6].appl  nodeId  ETV
vector 138  scenario.node[6].appl  acceleration  ETV
vector 139  scenario.node[6].appl  controllerAcceleration  ETV
vector 135  scenario.node[6].appl  speed  ETV
vector 136  scenario.node[6].appl  posx  ETV
vector 137  scenario.node[6].appl  posy  ETV
vector 154  scenario.node[7].appl  distance  ETV
vector 155  scenario.node[7].appl  relativeSpeed  ETV
vector 156  scenario.node[7].appl  nodeId  ETV
vector 160  scenario.node[7].appl  acceleration  ETV
vector 161  scenario.node[7].appl  controllerAcceleration  ETV
vector 157  scenario.node[7].appl  speed  ETV
vector 158  scenario.node[7].appl  posx  ETV
vector 159  scenario.node[7].appl  posy  ETV
vector 102  scenario.node[4].prot  frontDelay  ETV
vector 100  scenario.node[4].prot  frontDelayId  ETV
vector 35  scenario.node[1].prot  leaderDelay  ETV
vector 33  scenario.node[1].prot  leaderDelayId  ETV
vector 36  scenario.node[1].prot  frontDelay  ETV
vector 34  scenario.node[1].prot  frontDelayId  ETV
vector 57  scenario.node[2].prot  leaderDelay  ETV
vector 55  scenario.node[2].prot  leaderDelayId  ETV
vector 79  scenario.node[3].prot  leaderDelay  ETV
vector 77  scenario.node[3].prot  leaderDelayId  ETV
vector 101  scenario.node[4].prot  leaderDelay  ETV
vector 99  scenario.node[4].prot  leaderDelayId  ETV
vector 123  scenario.node[5].prot  leaderDelay  ETV
vector 121  scenario.node[5].prot  leaderDelayId  ETV
vector 145  scenario.node[6].prot  leaderDelay  ETV
vector 143  scenario.node[6].prot  leaderDelayId  ETV
vector 167  scenario.node[7].prot  leaderDelay  ETV
vector 165  scenario.node[7].prot  leaderDelayId  ETV
vector 80  scenario.node[3].prot  frontDelay  ETV
vector 78  scenario.node[3].prot  frontDelayId  ETV
vector 146  scenario.node[6].prot  frontDelay  ETV
vector 144  scenario.node[6].prot  frontDelayId  ETV
vector 58  scenario.node[2].prot  frontDelay  ETV
vector 56  scenario.node[2].prot  frontDelayId  ETV
vector 124  scenario.node[5].prot  frontDelay  ETV
vector 122  scenario.node[5].prot  frontDelayId  ETV
vector 168  scenario.node[7].prot  frontDelay  ETV
vector 166  scenario.node[7].prot  frontDelayId  ETV
vector 8  scenario.node[0].prot  nodeId  ETV
vector 9  scenario.node[0].prot  busyTime  ETV
vector 10  scenario.node[0].prot  collisions  ETV
vector 30  scenario.node[1].prot  nodeId  ETV
vector 31  scenario.node[1].prot  busyTime  ETV
vector 32  scenario.node[1].prot  collisions  ETV
vector 52  scenario.node[2].prot  nodeId  ETV
vector 53  scenario.node[2].prot  busyTime  ETV
vector 54  scenario.node[2].prot  collisions  ETV
vector 74  scenario.node[3].prot  nodeId  ETV
vector 75  scenario.node[3].prot  busyTime  ETV
vector 76  scenario.node[3].prot  collisions  ETV
vector 96  scenario.node[4].prot  nodeId  ETV
vector 97  scenario.node[4].prot  busyTime  ETV
vector 98  scenario.node[4].prot  collisions  ETV
vector 118  scenario.node[5].prot  nodeId  ETV
vector 119  scenario.node[5].prot  busyTime  ETV
vector 120  scenario.node[5].prot  collisions  ETV
vector 140  scenario.node[6].prot  nodeId  ETV
vector 141  scenario.node[6].prot  busyTime  ETV
vector 142  scenario.node[6].prot  collisions  ETV
vector 162  scenario.node[7].prot  nodeId  ETV
vector 163  scenario.node[7].prot  busyTime  ETV
vector 164  scenario.node[7].prot  collisions  ETV
7	11080 8058 232 188167 1.11 34.81 338 -1.5 1.5 -15.315251149858 536.99541519077
6	19138 10604 232 188167 1.11 34.81 338 -1.472274679513 1.4513407705126 -11.875205996219 365.91846429767
5	29742 6810 232 188167 1.11 34.81 338 36.55 36.55 12353.9 451535.045
4	36552 10152 232 188167 1.11 34.81 338 215.66408119188 688.15571630746 153082.98613592 75643326.15986
3	46704 10152 232 188167 1.11 34.81 338 12.59914837223 15.853603639796 4738.3956978734 66673.842491879
1	56856 5458 232 188167 1.11 34.81 338 0 0 0 0
0	62314 5796 232 188167 1.11 34.81 338 -1 -1 -338 338
2	68110 5458 232 188167 1.11 34.81 338 0 0 0 0
10	73568 469 5234 183700 2 34 33 0 0 0 0
9	74037 635 5234 183700 2 34 33 0.023625 0.02625 0.863625 0.022608140625
8	74672 436 5234 183700 2 34 33 0 0 0 0
29	75108 10376 233 188168 1.11 34.81 338 -1.5022740555057 1.5017240992908 -15.695367908037 534.11632271479
28	85484 10940 233 188168 1.11 34.81 338 -1.4793271049111 1.4491063994006 -11.462397307266 365.24998244697
27	96424 7148 233 188168 1.11 34.81 338 36.55 36.55 12353.9 451535.045
26	103572 10493 233 188168 1.11 34.81 338 191.66408119202 664.18059536801 144965.38997342 68484608.111009
25	114065 10498 233 188168 1.11 34.81 338 12.598824561334 15.855157541096 4738.6599152731 66680.725785711
23	124563 11465 233 188168 1.11 34.81 338 -0.062041790475234 0.062927523623424 -0.14546533972583 0.6504078725904
22	136028 10488 233 188168 1.11 34.81 338 19.934067099263 20.098815123061 6765.6014468462 135424.83531996
24	146516 5796 233 188168 1.11 34.81 338 1 1 338 338
36	152312 13448 964 188343 1.241824401662 34.841821752732 337 0.099999708291 0.100012761594 33.699997112289 3.3699994234539
35	165760 13448 964 188343 1.241824401662 34.841821752732 337 0.099999708291 0.100012761594 33.699997112289 3.3699994234539
34	179208 9106 964 188343 1.241824401662 34.841821752732 337 1 1 337 337
33	188314 9106 964 188343 1.241824401662 34.841821752732 337 1 1 337 337
32	197420 469 5235 183701 2 34 33 0 0 0 0
31	197889 668 5235 183701 2 34 33 0.023625 0.02625 0.863625 0.022608140625
30	198557 469 5235 183701 2 34 33 1 1 33 33
51	199026 10541 234 188169 1.11 34.81 338 -1.5157394580029 1.5126010673939 -16.20886462275 538.78910923678
50	209567 10942 234 188169 1.11 34.81 338 -1.4731702643866 1.4434762622948 -11.252059929288 362.87382715795
49	220509 7148 234 188169 1.11 34.81 338 36.55 36.55 12353.9 451535.045
48	227657 10504 234 188169 1.11 34.81 338 167.66408119202 640.19222812364 136852.14371029 61720007.8676
47	238161 10497 234 188169 1.11 34.81 338 12.600650976202 15.848466989387 4738.7840158473 66682.476920723
45	248658 11560 234 188169 1.11 34.81 338 -0.01772942574723 0.015851881017262 -0.0094766011527181 0.033788291337767
44	260218 10481 234 188169 1.11 34.81 338 19.97282310467 20.042588211281 6761.2487451413 135250.05448227
46	270699 5796 234 188169 1.11 34.81 338 2 2 676 1352
58	276495 13479 1176 188555 1.281934122161 34.881931428762 337 0.099999704624 0.100012761219 33.69999706782 3.3699994145601
57	289974 13452 970 188349 1.241824481718 34.841821832747 337 0.099999708284 0.100012761603 33.699997112248 3.3699994234457
56	303426 9125 1176 188555 1.281934122161 34.881931428762 337 2 2 674 1348
55	312551 9103 970 188349 1.241824481718 34.841821832747 337 2 2 674 1348
54	321654 469 5236 183702 2 34 33 0 0 0 0
53	322123 668 5236 183702 2 34 33 0.023625 0.02625 0.863625 0.022608140625
52	322791 469 5236 183702 2 34 33 2 2 66 132
73	323260 10906 235 188170 1.11 34.81 338 -1.4979584843299 1.4963276239402 -15.931677836305 526.9028850505
72	334166 10945 235 188170 1.11 34.81 338 -1.463276487034 1.4357843210334 -11.046965361615 357.60996085448
71	345111 7148 235 188170 1.11 34.81 338 36.55 36.55 12353.9 451535.045
70	352259 10491 235 188170 1.11 34.81 338 143.66408882141 616.21151355584 128741.38222806 55347282.176044
69	362750 10486 235 188170 1.11 34.81 338 12.609547301505 15.840328354588 4738.9840646767 66684.695725645
67	373236 11634 235 188170 1.11 34.81 338 -0.015485116012533 0.011538813806665 -0.087528230126722 0.015939287665478
66	384870 10496 235 188170 1.11 34.81 338 19.970461291019 20.035617410594 6758.7654832074 135150.69973984
68	395366 5796 235 188170 1.11 34.81 338 3 3 1014 3042
80	401162 13467 1040 188413 1.262751561773 34.862748912735 337 0.099999708277 0.100012763184 33.699997112181 3.3699994234324
79	414629 13452 976 188355 1.241824561773 34.841821912736 337 0.099999708277 0.100012761611 33.699997112182 3.3699994234325
78	428081 9113 1040 188413 1.262751561773 34.862748912735 337 3 3 1011 3033
77	437194 9111 976 188355 1.241824561773 34.841821912736 337 3 3 1011 3033
76	446305 469 5237 183703 2 34 33 0 0 0 0
75	446774 668 5237 183703 2 34 33 0.023625 0.02625 0.863625 0.022608140625
74	447442 469 5237 183703 2 34 33 3 3 99 297
117	447911 10870 237 188172 1.11 34.81 338 -1.4978823359463 1.5 49.02557461104 525.86997995717
116	458781 11261 237 188172 1.11 34.81 338 -1.454116665284 1.4946207848212 43.996623077696 368.69582147579
115	470042 7486 237 188172 1.11 34.81 338 36.55 36.55 12353.9 451535.045
114	477528 10822 237 188172 1.11 34.81 338 95.664088821411 574.56301321369 112572.76498217 43829298.153864
113	488350 10823 237 188172 1.11 34.81 338 12.617304746268 18.243785840688 4804.4104367517 68723.557419888
111	499173 11690 237 188172 1.11 34.81 338 -0.033954328815913 4.1472998340136 129.59924198579 430.8240893938
110	510863 10815 237 188172 1.11 34.81 338 19.974351210981 32.821346727202 6987.6022953699 146167.87327389
112	521678 6134 237 188172 1.11 34.81 338 5 5 1690 8450
124	527812 13802 1242 188627 1.287391362327 34.887401646385 337 0.099999702789 0.100012762958 33.700010045277 3.3700020102137
123	541614 13798 988 188367 1.241824721884 34.841822051112 337 0.099999706475 0.100012761619 33.699997090447 3.3699994190856
122	555412 9445 1242 188627 1.287391362327 34.887401646385 337 5 5 1685 8425
121	564857 9452 988 188367 1.241824721884 34.841822051112 337 5 5 1685 8425
120	574309 502 5239 183705 2 34 33 0 0 0 0
119	574811 701 5239 183705 2 34 33 0.023625 0.02625 0.863625 0.022608140625
118	575512 502 5239 183705 2 34 33 5 5 165 825
139	576014 11232 238 188173 1.11 34.81 338 -1.4890055520393 1.5 22.815622816798 477.7370101067
138	587246 11284 238 188173 1.11 34.81 338 -1.4486611824216 1.4384336216821 20.220865944642 327.22558974024
137	598530 7486 238 188173 1.11 34.81 338 36.55 36.55 12353.9 451535.045
136	606016 10834 238 188173 1.11 34.81 338 71.664088821411 547.54939576697 104434.40631745 38592226.696156
135	616850 10832 238 188173 1.11 34.81 338 12.623277567182 15.890854322097 4773.4458405204 67696.303246423
133	627682 11772 238 188173 1.11 34.81 338 -0.018947290074626 2.3432162249781 30.524630000525 50.414413085248
132	639454 10820 238 188173 1.11 34.81 338 19.987380080582 22.966558816349 6785.7393727911 136277.00829118
134	650274 6134 238 188173 1.11 34.81 338 6 6 2028 12168
146	656408 13810 1106 188479 1.266713801939 34.866711141246 337 0.099999707249 0.100012761861 33.699997100526 3.3699994211014
145	670218 13813 994 188373 1.241824801939 34.841822141457 337 0.099999707258 0.100012761619 33.699997100737 3.3699994211436
144	684031 9455 1106 188479 1.266713801939 34.866711141246 337 6 6 2022 12132
143	693486 9456 994 188373 1.241824801939 34.841822141457 337 6 6 2022 12132
142	702942 502 5240 183706 2 34 33 0 0 0 0
141	703444 701 5240 183706 2 34 33 0.023625 0.02625 0.863625 0.022608140625
140	704145 502 5240 183706 2 34 33 6 6 198 1188
161	704647 11177 239 188174 1.11 34.81 338 -1.4963545109668 1.5 6.8227076326369 490.06836817553
160	715824 11305 239 188174 1.11 34.81 338 -1.4519455768838 1.4347156547375 6.4925812160778 329.79167415774
159	727129 7486 239 188174 1.11 34.81 338 36.55 36.55 12353.9 451535.045
158	734615 10835 239 188174 1.11 34.81 338 47.664088821411 521.99442764922 96309.750515352 33760986.971152
157	745450 10820 239 188174 1.11 34.81 338 12.616356384039 15.828641343931 4757.4196700608 67207.879626621
155	756270 11751 239 188174 1.11 34.81 338 -0.03183454380985 1.3455609779158 15.823961800117 14.804278552648
154	768021 10812 239 188174 1.11 34.81 338 19.977402937242 21.527978728707 6772.3352786927 135705.13712369
156	778833 6134 239 188174 1.11 34.81 338 7 7 2366 16562
168	784967 13816 1308 188681 1.289468522438 34.889465822612 337 0.099999704036 0.100012761288 33.699997061393 3.3699994132747
167	798783 13802 1000 188379 1.241824881995 34.841822226836 337 0.099999707708 0.100012761613 33.69999710606 3.3699994222081
166	812585 9465 1308 188681 1.289468522438 34.889465822612 337 7 7 2359 16513
165	822050 9455 1000 188379 1.241824881995 34.841822226836 337 7 7 2359 16513
164	831505 502 5241 183707 2 34 33 0 0 0 0
163	832007 701 5241 183707 2 34 33 0.023625 0.02625 0.863625 0.022608140625
162	832708 502 5241 183707 2 34 33 7 7 231 1617
88	833210 10493 236 188719 1.11 34.89 339 0 20.053884484493 6478.3234779592 127094.22032233
89	843703 11449 236 188719 1.11 34.89 339 -9.6007151352362 0.025074506620944 -205.36022628265 1285.0047591818
90	855152 5814 236 188719 1.11 34.89 339 4 4 1356 5424
91	860966 10527 236 188719 1.11 34.89 339 12.614079653525 22.348314234064 4957.2023597118 73872.823126468
92	871493 10528 236 188719 1.11 34.89 339 119.66408882141 613.25226432731 121528.22841404 50071677.653876
93	882021 7170 236 188719 1.11 34.89 339 36.55 36.55 12390.45 452870.9475
94	889191 10805 236 188719 1.11 34.89 339 -1.4604041365054 2.5 85.009073828615 515.06583105113
95	899996 10891 236 188719 1.11 34.89 339 -1.4916742925999 5.7072542393923 135.88260975895 1082.5481408104
96	910887 469 5238 183704 2 34 33 4 4 132 528
97	911356 668 5238 183704 2 34 33 0.023625 0.02625 0.863625 0.022608140625
98	912024 469 5238 183704 2 34 33 0 0 0 0
99	912493 9106 982 188361 1.241824641829 34.841821927613 337 4 4 1348 5392
100	921599 9446 904 188277 1.240527161496 34.84053744767 337 4 4 1348 5392
101	931045 13793 982 188361 1.241824641829 34.841821927613 337 0.09999970512 0.100012761623 33.699997047003 3.3699994103968
102	944838 13794 904 188277 1.240527161496 34.84053744767 337 0.099999705181 0.100012763147 33.700010047393 3.3700020106367
