version 2
run SinusoidalAccInjectionAttack-80-20171201-16:48:20-96431
attr CACCSpacing 5
attr attackAcc -10
attr attackPos 7
attr attackSpeed 150
attr attackStart 30
attr attacker 4
attr beaconInterval 0.1
attr configname SinusoidalAccInjectionAttack
attr controller 1
attr datetime 20171201-16:48:20
attr experiment SinusoidalAccInjectionAttack
attr fakeAcc "(4 == 4)"
attr fakePos "(4 == 2)"
attr fakeSpeed "(4 == 3)"
attr inifile omnetpp_80.ini
attr iterationvars "$attacker=4, $attackSpeed=150, $attackPos=7, $attackAcc=-10, $leaderSpeed=100, $controller=1, $CACCSpacing=5, $sController=\"CACC\", $attackStart=30, $0=5, $1=0, $nCars=8, $platoonSize=8, $nLanes=1, $beaconInterval=0.1, $priority=2, $packetSize=200, $ploegH=0.5, $leaderHeadway=1.2, $fakeSpeed=(4 == 3), $fakeAcc=(4 == 4), $fakePos=(4 == 2)"
attr iterationvarsf attacker=4,attackSpeed=150,attackPos=7,attackAcc=-10,leaderSpeed=100,controller=1,CACCSpacing=5,sController=CACC,attackStart=30,5,0,nCars=8,platoonSize=8,nLanes=1,beaconInterval=0.1,priority=2,packetSize=200,ploegH=0.5,leaderHeadway=1.2,fakeSpeed=(4_==_3),fakeAcc=(4_==_4),fakePos=(4_==_2)-
attr leaderHeadway 1.2
attr leaderSpeed 100
attr measurement "$attacker=4, $attackSpeed=150, $attackPos=7, $attackAcc=-10, $leaderSpeed=100, $controller=1, $CACCSpacing=5, $sController=\"CACC\", $attackStart=30, $0=5, $1=0, $nCars=8, $platoonSize=8, $nLanes=1, $beaconInterval=0.1, $priority=2, $packetSize=200, $ploegH=0.5, $leaderHeadway=1.2, $fakeSpeed=(4 == 3), $fakeAcc=(4 == 4), $fakePos=(4 == 2)"
attr nCars 8
attr nLanes 1
attr network scenario
attr packetSize 200
attr platoonSize 8
attr ploegH 0.5
attr priority 2
attr processid 96431
attr repetition 0
attr replication #0
attr resultdir results
attr runnumber 80
attr sController "\"CACC\""
attr seedset 0
param **.coreDebug false
param **.debug false
param **.headway 0.1s
param **.numberOfCars 8
param **.numberOfCarsPerPlatoon 8
param **.numberOfLanes 1
param **.numericController 1
param **.traffic.nCars 8
param **.traffic.nLanes 1
param **.traffic.platoonInsertDistance 5m
param **.traffic.platoonInsertHeadway 0s
param **.traffic.platoonInsertSpeed 100kmph
param **.traffic.platoonInsertTime "1 s"
param **.traffic.platoonLeaderHeadway 1.2s
param **.traffic.platoonSize 8
param **.traffic.platooningVType "\"vtypeauto\""
param **.traffic_type "\"PlatoonsTrafficManager\""
param *.**.nic.mac1609_4.bitrate 6Mbps
param *.**.nic.mac1609_4.txPower 100mW
param *.**.nic.mac1609_4.useServiceChannel false
param *.**.nic.phy80211p.analogueModels "xmldoc(\"config.xml\")"
param *.**.nic.phy80211p.decider "xmldoc(\"config.xml\")"
param *.**.nic.phy80211p.maxTXPower 100mW
param *.**.nic.phy80211p.sensitivity -94dBm
param *.**.nic.phy80211p.thermalNoise -95dBm
param *.**.nic.phy80211p.usePropagationDelay true
param *.**.nic.phy80211p.useThermalNoise true
param *.annotations.draw false
param *.connectionManager.alpha 2.0
param *.connectionManager.carrierFrequency "5.890e9 Hz"
param *.connectionManager.pMax 100mW
param *.connectionManager.sat -94dBm
param *.connectionManager.sendDirect true
param *.manager.autoShutdown true
param *.manager.commandLine "\"sumo --remote-port $port --seed $seed --configuration-file $configFile\""
param *.manager.configFile "\"./sumocfg/freeway.sumo.cfg\""
param *.manager.host "\"localhost\""
param *.manager.margin 25
param *.manager.moduleDisplayString "\"\""
param *.manager.moduleName "\"node\""
param *.manager.moduleType "\"Car\""
param *.manager.updateInterval 0.01s
param *.node[*].appl.attackStart 30s
param *.node[*].appl.attackerType 4
param *.node[*].appl.simulationDuration "60 s"
param *.node[*].appl_type "\"SimplePlatooningApp\""
param *.node[*].helper.nCars 8
param *.node[*].helper.nLanes 1
param *.node[*].helper.platoonSize 8
param *.node[*].helper_type "\"PositionHelper\""
param *.node[*].mobility.x 0
param *.node[*].mobility.y 0
param *.node[*].mobility.z 1.895
param *.node[*].prot.attackStart 30s
param *.node[*].prot.attackerType 4
param *.node[*].prot.attackingNode 3
param *.node[*].prot.beaconingInterval 0.1s
param *.node[*].prot.fakeAcc "(4 == 4)"
param *.node[*].prot.fakePos "(4 == 2)"
param *.node[*].prot.fakeSpeed "(4 == 3)"
param *.node[*].prot.maliciousAcc "-10 mpss"
param *.node[*].prot.maliciousSpeed 150kmph
param *.node[*].prot.packetSize 200
param *.node[*].prot.priority 2
param *.node[*].prot.shiftX "7 m"
param *.node[*].prot.useControllerAcceleration true
param *.node[*].protocol_type "\"SimplePlatooningBeaconing\""
param *.node[*].scenario.accHeadway 0.1s
param *.node[*].scenario.caccC1 0.5
param *.node[*].scenario.caccOmegaN "0.2 Hz"
param *.node[*].scenario.caccSpacing 5m
param *.node[*].scenario.caccXi 1
param *.node[*].scenario.controller "\"CACC\""
param *.node[*].scenario.engineTau "0.5 s"
param *.node[*].scenario.leaderHeadway 1.2s
param *.node[*].scenario.leaderSpeed 100kmph
param *.node[*].scenario.ploegH 0.5s
param *.node[*].scenario.ploegKd 0.7
param *.node[*].scenario.ploegKp 0.2
param *.node[*].scenario.useRealisticEngine false
param *.node[*].scenario_type "\"SinusoidalScenario\""
param *.node[*].unicast.packetLossRate 0
param *.obstacles.debug false
param *.playgroundSizeX 65000m
param *.playgroundSizeY 25000m
param *.playgroundSizeZ 50m
param *.world.use2D false
param *.world.useTorus false

vector 0  scenario.node[0].appl  distance  ETV
vector 1  scenario.node[0].appl  relativeSpeed  ETV
vector 2  scenario.node[0].appl  nodeId  ETV
vector 6  scenario.node[0].appl  acceleration  ETV
vector 7  scenario.node[0].appl  controllerAcceleration  ETV
vector 3  scenario.node[0].appl  speed  ETV
vector 4  scenario.node[0].appl  posx  ETV
vector 5  scenario.node[0].appl  posy  ETV
vector 22  scenario.node[1].appl  distance  ETV
vector 23  scenario.node[1].appl  relativeSpeed  ETV
vector 24  scenario.node[1].appl  nodeId  ETV
vector 28  scenario.node[1].appl  acceleration  ETV
vector 29  scenario.node[1].appl  controllerAcceleration  ETV
vector 25  scenario.node[1].appl  speed  ETV
vector 26  scenario.node[1].appl  posx  ETV
vector 27  scenario.node[1].appl  posy  ETV
vector 44  scenario.node[2].appl  distance  ETV
vector 45  scenario.node[2].appl  relativeSpeed  ETV
vector 46  scenario.node[2].appl  nodeId  ETV
vector 50  scenario.node[2].appl  acceleration  ETV
vector 51  scenario.node[2].appl  controllerAcceleration  ETV
vector 47  scenario.node[2].appl  speed  ETV
vector 48  scenario.node[2].appl  posx  ETV
vector 49  scenario.node[2].appl  posy  ETV
vector 66  scenario.node[3].appl  distance  ETV
vector 67  scenario.node[3].appl  relativeSpeed  ETV
vector 68  scenario.node[3].appl  nodeId  ETV
vector 72  scenario.node[3].appl  acceleration  ETV
vector 73  scenario.node[3].appl  controllerAcceleration  ETV
vector 69  scenario.node[3].appl  speed  ETV
vector 70  scenario.node[3].appl  posx  ETV
vector 71  scenario.node[3].appl  posy  ETV
vector 88  scenario.node[4].appl  distance  ETV
vector 89  scenario.node[4].appl  relativeSpeed  ETV
vector 90  scenario.node[4].appl  nodeId  ETV
vector 94  scenario.node[4].appl  acceleration  ETV
vector 95  scenario.node[4].appl  controllerAcceleration  ETV
vector 91  scenario.node[4].appl  speed  ETV
vector 92  scenario.node[4].appl  posx  ETV
vector 93  scenario.node[4].appl  posy  ETV
vector 110  scenario.node[5].appl  distance  ETV
vector 111  scenario.node[5].appl  relativeSpeed  ETV
vector 112  scenario.node[5].appl  nodeId  ETV
vector 116  scenario.node[5].appl  acceleration  ETV
vector 117  scenario.node[5].appl  controllerAcceleration  ETV
vector 113  scenario.node[5].appl  speed  ETV
vector 114  scenario.node[5].appl  posx  ETV
vector 115  scenario.node[5].appl  posy  ETV
vector 132  scenario.node[6].appl  distance  ETV
vector 133  scenario.node[6].appl  relativeSpeed  ETV
vector 134  scenario.node[6].appl  nodeId  ETV
vector 138  scenario.node[6].appl  acceleration  ETV
vector 139  scenario.node[6].appl  controllerAcceleration  ETV
vector 135  scenario.node[6].appl  speed  ETV
vector 136  scenario.node[6].appl  posx  ETV
vector 137  scenario.node[6].appl  posy  ETV
vector 154  scenario.node[7].appl  distance  ETV
vector 155  scenario.node[7].appl  relativeSpeed  ETV
vector 156  scenario.node[7].appl  nodeId  ETV
vector 160  scenario.node[7].appl  acceleration  ETV
vector 161  scenario.node[7].appl  controllerAcceleration  ETV
vector 157  scenario.node[7].appl  speed  ETV
vector 158  scenario.node[7].appl  posx  ETV
vector 159  scenario.node[7].appl  posy  ETV
vector 80  scenario.node[3].prot  frontDelay  ETV
vector 78  scenario.node[3].prot  frontDelayId  ETV
vector 58  scenario.node[2].prot  frontDelay  ETV
vector 56  scenario.node[2].prot  frontDelayId  ETV
vector 168  scenario.node[7].prot  frontDelay  ETV
vector 166  scenario.node[7].prot  frontDelayId  ETV
vector 35  scenario.node[1].prot  leaderDelay  ETV
vector 33  scenario.node[1].prot  leaderDelayId  ETV
vector 36  scenario.node[1].prot  frontDelay  ETV
vector 34  scenario.node[1].prot  frontDelayId  ETV
vector 57  scenario.node[2].prot  leaderDelay  ETV
vector 55  scenario.node[2].prot  leaderDelayId  ETV
vector 79  scenario.node[3].prot  leaderDelay  ETV
vector 77  scenario.node[3].prot  leaderDelayId  ETV
vector 101  scenario.node[4].prot  leaderDelay  ETV
vector 99  scenario.node[4].prot  leaderDelayId  ETV
vector 123  scenario.node[5].prot  leaderDelay  ETV
vector 121  scenario.node[5].prot  leaderDelayId  ETV
vector 145  scenario.node[6].prot  leaderDelay  ETV
vector 143  scenario.node[6].prot  leaderDelayId  ETV
vector 167  scenario.node[7].prot  leaderDelay  ETV
vector 165  scenario.node[7].prot  leaderDelayId  ETV
vector 124  scenario.node[5].prot  frontDelay  ETV
vector 122  scenario.node[5].prot  frontDelayId  ETV
vector 102  scenario.node[4].prot  frontDelay  ETV
vector 100  scenario.node[4].prot  frontDelayId  ETV
vector 146  scenario.node[6].prot  frontDelay  ETV
vector 144  scenario.node[6].prot  frontDelayId  ETV
vector 8  scenario.node[0].prot  nodeId  ETV
vector 9  scenario.node[0].prot  busyTime  ETV
vector 10  scenario.node[0].prot  collisions  ETV
vector 30  scenario.node[1].prot  nodeId  ETV
vector 31  scenario.node[1].prot  busyTime  ETV
vector 32  scenario.node[1].prot  collisions  ETV
vector 52  scenario.node[2].prot  nodeId  ETV
vector 53  scenario.node[2].prot  busyTime  ETV
vector 54  scenario.node[2].prot  collisions  ETV
vector 74  scenario.node[3].prot  nodeId  ETV
vector 75  scenario.node[3].prot  busyTime  ETV
vector 76  scenario.node[3].prot  collisions  ETV
vector 96  scenario.node[4].prot  nodeId  ETV
vector 97  scenario.node[4].prot  busyTime  ETV
vector 98  scenario.node[4].prot  collisions  ETV
vector 118  scenario.node[5].prot  nodeId  ETV
vector 119  scenario.node[5].prot  busyTime  ETV
vector 120  scenario.node[5].prot  collisions  ETV
vector 140  scenario.node[6].prot  nodeId  ETV
vector 141  scenario.node[6].prot  busyTime  ETV
vector 142  scenario.node[6].prot  collisions  ETV
vector 162  scenario.node[7].prot  nodeId  ETV
vector 163  scenario.node[7].prot  busyTime  ETV
vector 164  scenario.node[7].prot  collisions  ETV
7	232	1.11	-8.430731206488e-07
7	788	1.21	-8.247038785214e-07
7	1344	1.31	-7.948429328053e-07
7	1900	1.41	-7.5609037608615e-07
7	2456	1.51	-7.1073863239235e-07
7	3012	1.61	-6.6078666094427e-07
7	3568	1.71	-6.079568990458e-07
7	4124	1.81	-5.5371389606762e-07
7	4680	1.91	-4.9928438983216e-07
7	5244	2.01	-4.4567811841034e-07
7	5800	2.11	-3.9370868165634e-07
7	6356	2.21	-3.4401411852514e-07
7	6912	2.31	-2.9707706872273e-07
7	7468	2.41	-2.5324398578164e-07
7	8024	2.51	-2.1274344064182e-07
7	8580	2.61	-1.7570315336002e-07
7	9136	2.71	-1.4216582755466e-07
7	9692	2.81	-1.1210364547765e-07
7	10248	2.91	-8.5431519636359e-08
7	10812	3.01	-6.2018816748832e-08
7	11368	3.11	-4.1699859565369e-08
7	11924	3.21	-2.4283316690799e-08
7	12480	3.31	-9.5601571103998e-09
7	13036	3.41	2.6894362292751e-09
7	13592	3.51	1.2690140493987e-08
7	14148	3.61	2.0666576006079e-08
7	14704	3.71	2.6839355626862e-08
7	15260	3.81	3.1421798496467e-08
7	15816	3.91	3.4617407607129e-08
7	16380	4.01	3.6617997523081e-08
7	16936	4.11	3.7602347902066e-08
7	17492	4.21	3.7735404134764e-08
7	18048	4.31	3.7167730226884e-08
7	18604	4.41	3.6035434192172e-08
7	19160	4.51	3.446024621212e-08
7	19716	4.61	3.2549973383311e-08
7	20272	4.71	3.0399071704323e-08
7	20828	4.81	2.8089345960325e-08
7	21384	4.91	2.5690727767369e-08
7	21949	5.01	2.326218861981e-08
7	22506	5.11	0.34814789186464
7	23063	5.21	0.68726937161622
7	23620	5.31	1.0064706311115
7	24177	5.41	1.2963311698934
7	24734	5.51	1.5
7	25291	5.61	1.5
7	25848	5.71	1.5
7	26405	5.81	1.5
7	26962	5.91	1.5
7	27527	6.01	1.5
7	28084	6.11	1.5
7	28641	6.21	1.5
7	29198	6.31	1.5
7	29755	6.41	1.5
7	30312	6.51	1.4919234148491
7	30869	6.61	1.226499329248
7	31426	6.71	0.92305384082895
7	31983	6.81	0.58908102066068
7	32540	6.91	0.2323562172788
7	33105	7.01	-0.13919559696193
7	33662	7.11	-0.51762846464532
7	34219	7.21	-0.89509993840359
7	34776	7.31	-1.2639902875456
7	35333	7.41	-1.5
7	35890	7.51	-1.5
7	36447	7.61	-1.5
7	37004	7.71	-1.5
7	37561	7.81	-1.5
7	38118	7.91	-1.5
7	38683	8.01	-1.5
7	39240	8.11	-1.5
7	39797	8.21	-1.5
7	40354	8.31	-1.5
7	40911	8.41	-1.5
7	41468	8.51	-1.5
7	42025	8.61	-1.5
7	42582	8.71	-1.5
7	43139	8.81	-1.5
7	43696	8.91	-1.5
7	44261	9.01	-1.5
7	44818	9.11	-1.5
7	45375	9.21	-1.5
7	45932	9.31	-1.5
7	46489	9.41	-1.5
7	47046	9.51	-1.1784535904302
7	47603	9.61	-0.73985166419522
7	48160	9.71	-0.29046662059022
7	48717	9.81	0.15868205669937
7	49274	9.91	0.59737147691163
7	49839	10.01	1.0162504341895
7	50396	10.11	1.4069035498921
7	50953	10.21	1.5
7	51510	10.31	1.5
7	52067	10.41	1.5
7	52624	10.51	1.5
7	53181	10.61	1.5
7	53738	10.71	1.5
7	54295	10.81	1.5
7	54852	10.91	1.5
7	55417	11.01	1.5
7	55974	11.11	1.5
7	56531	11.21	1.5
7	57088	11.31	1.5
7	57645	11.41	1.5
7	58202	11.51	1.5
7	58759	11.61	1.5
7	59316	11.71	1.5
7	59873	11.81	1.5
7	60430	11.91	1.142056952341
7	60995	12.01	0.73271074174567
7	61552	12.11	0.30763491703603
7	62109	12.21	-0.1229018340005
7	62666	12.31	-0.54917422864573
7	63223	12.41	-0.96209331715876
7	63780	12.51	-1.353290027524
7	64337	12.61	-1.5
7	64894	12.71	-1.5
7	65451	12.81	-1.5
7	66008	12.91	-1.5
7	66573	13.01	-1.5
7	67130	13.11	-1.5
7	67687	13.21	-1.5
7	68244	13.31	-1.5
7	68801	13.41	-1.5
7	69358	13.51	-1.5
7	69915	13.61	-1.5
7	70472	13.71	-1.5
7	71029	13.81	-1.5
7	71586	13.91	-1.5
7	72151	14.01	-1.5
7	72708	14.11	-1.5
7	73265	14.21	-1.5
7	73822	14.31	-1.5
7	74379	14.41	-1.3008305793136
7	74936	14.51	-0.8883573602082
7	75493	14.61	-0.45792464374534
7	76050	14.71	-0.020297800477731
7	76607	14.81	0.41435934757689
7	77164	14.91	0.83657487484984
7	77729	15.01	1.2376491838973
7	78286	15.11	1.5
7	78843	15.21	1.5
7	79400	15.31	1.5
7	79957	15.41	1.5
7	80514	15.51	1.5
7	81071	15.61	1.5
7	81628	15.71	1.5
7	82185	15.81	1.5
7	82742	15.91	1.5
7	83307	16.01	1.5
7	83864	16.11	1.5
7	84421	16.21	1.5
7	84978	16.31	1.5
7	85535	16.41	1.5
7	86092	16.51	1.5
7	86649	16.61	1.5
7	87206	16.71	1.5
7	87763	16.81	1.5
7	88320	16.91	1.2451238477401
7	88885	17.01	0.83347870135556
7	89442	17.11	0.40470958877082
7	89999	17.21	-0.03059806221717
7	90556	17.31	-0.46243980386486
7	91113	17.41	-0.8814833530446
7	91670	17.51	-1.2791500631707
7	92227	17.61	-1.5
7	92784	17.71	-1.5
7	93341	17.81	-1.5
7	93898	17.91	-1.5
7	94463	18.01	-1.5
7	95020	18.11	-1.5
7	95577	18.21	-1.5
7	96134	18.31	-1.5
7	96691	18.41	-1.5
7	97248	18.51	-1.5
7	97805	18.61	-1.5
7	98362	18.71	-1.5
7	98919	18.81	-1.5
7	99476	18.91	-1.5
7	100041	19.01	-1.5
7	100598	19.11	-1.5
7	101155	19.21	-1.5
7	101712	19.31	-1.5
7	102269	19.41	-1.2657245815118
7	102826	19.51	-0.85377693481412
7	103383	19.61	-0.42439560037995
7	103940	19.71	0.011767371269134
7	104497	19.81	0.44464851836491
7	105054	19.91	0.86486384400621
7	105619	20.01	1.2637899041136
7	106176	20.11	1.5
7	106733	20.21	1.5
7	107290	20.31	1.5
7	107847	20.41	1.5
7	108404	20.51	1.5
7	108961	20.61	1.5
7	109518	20.71	1.5
7	110075	20.81	1.5
7	110632	20.91	1.5
7	111197	21.01	1.5
7	111754	21.11	1.5
7	112311	21.21	1.5
7	112868	21.31	1.5
7	113425	21.41	1.5
7	113982	21.51	1.5
7	114539	21.61	1.5
7	115096	21.71	1.5
7	115653	21.81	1.5
7	116210	21.91	1.258091551777
7	116775	22.01	0.8462549163489
7	117332	22.11	0.41709956367568
7	117889	22.21	-0.018747163542116
7	118446	22.31	-0.45124369149361
7	119003	22.41	-0.87102520538537
7	119560	22.51	-1.2694848794591
7	120117	22.61	-1.5
7	120674	22.71	-1.5
7	121231	22.81	-1.5
7	121788	22.91	-1.5
7	122353	23.01	-1.5
7	122910	23.11	-1.5
7	123467	23.21	-1.5
7	124024	23.31	-1.5
7	124581	23.41	-1.5
7	125138	23.51	-1.5
7	125695	23.61	-1.5
7	126252	23.71	-1.5
7	126809	23.81	-1.5
7	127366	23.91	-1.5
7	127931	24.01	-1.5
7	128488	24.11	-1.5
7	129045	24.21	-1.5
7	129602	24.31	-1.5
7	130159	24.41	-1.2609239651112
7	130716	24.51	-0.8490461568448
7	131273	24.61	-0.41980696481052
7	131830	24.71	0.016157099446737
7	132387	24.81	0.44879633966076
7	132944	24.91	0.86873882266934
7	133509	25.01	1.26737155572
7	134066	25.11	1.5
7	134623	25.21	1.5
7	135180	25.31	1.5
7	135737	25.41	1.5
7	136294	25.51	1.5
7	136851	25.61	1.5
7	137408	25.71	1.5
7	137965	25.81	1.5
7	138522	25.91	1.5
7	139087	26.01	1.5
7	139644	26.11	1.5
7	140201	26.21	1.5
7	140758	26.31	1.5
7	141315	26.41	1.5
7	141872	26.51	1.5
7	142429	26.61	1.5
7	142986	26.71	1.5
7	143543	26.81	1.5
7	144100	26.91	1.2598728518634
7	144665	27.01	0.84801032251441
7	145222	27.11	0.41880224309152
7	145779	27.21	-0.017118277441824
7	146336	27.31	-0.44970455708397
7	146893	27.41	-0.86958730431876
7	147450	27.51	-1.2681558149826
7	148007	27.61	-1.5
7	148564	27.71	-1.5
7	149121	27.81	-1.5
7	149678	27.91	-1.5
7	150243	28.01	-1.5
7	150800	28.11	-1.5
7	151357	28.21	-1.5
7	151914	28.31	-1.5
7	152471	28.41	-1.5
7	153028	28.51	-1.5
7	153585	28.61	-1.5
7	154142	28.71	-1.5
7	154699	28.81	-1.5
7	155256	28.91	-1.5
7	155821	29.01	-1.5
7	156378	29.11	-1.5
7	156935	29.21	-1.5
7	157492	29.31	-1.5
7	158049	29.41	-1.2602629232513
7	158606	29.51	-0.84839472385599
7	159163	29.61	-0.41917509845245
7	159720	29.71	0.016761581287305
7	160277	29.81	0.44936751475852
7	160834	29.91	0.86927243012183
7	161399	30.01	1.267864773911
7	161956	30.11	1.5
7	162513	30.21	1.5
7	163070	30.31	1.5
7	163627	30.41	1.5
7	164184	30.51	1.5
7	164741	30.61	1.5
7	165298	30.71	1.5
7	165855	30.81	1.5
7	166412	30.91	1.5
7	166977	31.01	1.5
7	167534	31.11	1.5
7	168091	31.21	1.5
7	168648	31.31	1.5
7	169205	31.41	1.5
7	169762	31.51	1.5
7	170319	31.61	1.5
7	170876	31.71	1.5
7	171433	31.81	1.5
7	171990	31.91	1.2601181665204
7	172555	32.01	0.8482520712972
7	173112	32.11	0.41903673064365
7	173669	32.21	-0.016893952363397
7	174226	32.31	-0.44949259223633
7	174783	32.41	-0.8693892809368
7	175340	32.51	-1.2679727801776
6	232	1.11	-1.2391545567425e-07
6	788	1.21	-2.514333630188e-07
6	1344	1.31	-3.5153284727585e-07
6	1900	1.41	-4.2734420446777e-07
6	2456	1.51	-4.8187125401e-07
6	3012	1.61	-5.1795971955926e-07
6	3568	1.71	-5.3827413637464e-07
6	4124	1.81	-5.4528506154838e-07
6	4680	1.91	-5.4125663950799e-07
6	5244	2.01	-5.2824375984528e-07
6	5800	2.11	-5.080941889446e-07
6	6356	2.21	-4.8245141215375e-07
6	6912	2.31	-4.5276244975412e-07
6	7468	2.41	-4.202860282021e-07
6	8024	2.51	-3.8610643571246e-07
6	8580	2.61	-3.5114133822844e-07
6	9136	2.71	-3.1616025353287e-07
6	9692	2.81	-2.8179307776099e-07
6	10248	2.91	-2.4854536206931e-07
6	10812	3.01	-2.1681287876163e-07
6	11368	3.11	-1.8689298997288e-07
6	11924	3.21	-1.5899530581009e-07
6	12480	3.31	-1.3325838210676e-07
6	13036	3.41	-1.0975469422192e-07
6	13592	3.51	-8.8505203166278e-08
6	14148	3.61	-6.948575048682e-08
6	14704	3.71	-5.263665059374e-08
6	15260	3.81	-3.7870506730542e-08
6	15816	3.91	-2.5077895315917e-08
6	16380	4.01	-1.4133405557004e-08
6	16936	4.11	-4.9016790626411e-09
6	17492	4.21	2.7593927143243e-09
6	18048	4.31	8.9940499492513e-09
6	18604	4.41	1.3947598631603e-08
6	19160	4.51	1.7761081494427e-08
6	19716	4.61	2.0570567471623e-08
6	20272	4.71	2.2507151697937e-08
6	20828	4.81	2.3691626438449e-08
6	21384	4.91	2.4239099616352e-08
6	21949	5.01	2.4253310471067e-08
6	22506	5.11	0.0068264526728257
6	23063	5.21	0.074594836732089
6	23620	5.31	0.19005134681258
6	24177	5.41	0.34050272642077
6	24734	5.51	0.51301638947834
6	25291	5.61	0.6902545856434
6	25848	5.71	0.83572672600098
6	26405	5.81	0.95506454902292
6	26962	5.91	1.0529631292492
6	27527	6.01	1.133274063098
6	28084	6.11	1.1991570011418
6	28641	6.21	1.2532039573571
6	29198	6.31	1.2975412860019
6	29755	6.41	1.333913338177
6	30312	6.51	1.3635927249268
6	30869	6.61	1.3702053615898
6	31426	6.71	1.3272611926745
6	31983	6.81	1.2373810921854
6	32540	6.91	1.1040433755532
6	33105	7.01	0.93147092012096
6	33662	7.11	0.72451590565734
6	34219	7.21	0.48854318346834
6	34776	7.31	0.2293132962599
6	35333	7.41	-0.044839398398011
6	35890	7.51	-0.30626147443016
6	36447	7.61	-0.52071863005345
6	37004	7.71	-0.69664819306503
6	37561	7.81	-0.84097171097959
6	38118	7.91	-0.95936726353223
6	38683	8.01	-1.0564928537818
6	39240	8.11	-1.1361696666178
6	39797	8.21	-1.2015324045674
6	40354	8.31	-1.2551526155189
6	40911	8.41	-1.2991398644115
6	41468	8.51	-1.3352247292573
6	42025	8.61	-1.3648268867847
6	42582	8.71	-1.3891109663845
6	43139	8.81	-1.4090323697992
6	43696	8.91	-1.4253748592211
6	44261	9.01	-1.4387813926344
6	44818	9.11	-1.4497794195275
6	45375	9.21	-1.4588016321909
6	45932	9.31	-1.4662029890104
6	46489	9.41	-1.4722746794938
6	47046	9.51	-1.4696249146823
6	47603	9.61	-1.3967850639141
6	48160	9.71	-1.2587757641274
6	48717	9.81	-1.0660952217858
6	49274	9.91	-0.82923335017639
6	49839	10.01	-0.55852907832801
6	50396	10.11	-0.26404116068406
6	50953	10.21	0.03943269874469
6	51510	10.31	0.30182609756224
6	52067	10.41	0.51708007617997
6	52624	10.51	0.69366331158065
6	53181	10.61	0.83852306852847
6	53738	10.71	0.95735852386056
6	54295	10.81	1.0548449876072
6	54852	10.91	1.1348178424026
6	55417	11.01	1.2004234378704
6	55974	11.11	1.2542428765748
6	56531	11.21	1.2983935616166
6	57088	11.31	1.3346125010283
6	57645	11.41	1.3643246463978
6	58202	11.51	1.3886989543376
6	58759	11.61	1.4086943764163
6	59316	11.71	1.4250975869238
6	59873	11.81	1.4385539327762
6	60430	11.91	1.4345627372837
6	60995	12.01	1.3623449188774
6	61552	12.11	1.2299875654499
6	62109	12.21	1.0461448397812
6	62666	12.31	0.81967864249357
6	63223	12.41	0.55952045905059
6	63780	12.51	0.27454262949682
6	64337	12.61	-0.02234164487227
6	64894	12.71	-0.28780548057448
6	65451	12.81	-0.50557828687161
6	66008	12.91	-0.68422783827593
6	66573	13.01	-0.83078269404453
6	67130	13.11	-0.95100872081275
6	67687	13.21	-1.0496359374716
6	68244	13.31	-1.1305446069798
6	68801	13.41	-1.1969178964556
6	69358	13.51	-1.2513671116345
6	69915	13.61	-1.2960344327361
6	70472	13.71	-1.3326771936619
6	71029	13.81	-1.3627370202897
6	71586	13.91	-1.3873965479586
6	72151	14.01	-1.4076259495578
6	72708	14.11	-1.4242211047666
6	73265	14.21	-1.4378349121291
6	73822	14.31	-1.4490029758537
6	74379	14.41	-1.4542593951845
6	74936	14.51	-1.4067454390027
6	75493	14.61	-1.2938574955285
6	76050	14.71	-1.1248409052222
6	76607	14.81	-0.90912582142266
6	77164	14.91	-0.65618298375618
6	77729	15.01	-0.37539052553193
6	78286	15.11	-0.078063005083351
6	78843	15.21	0.20543869668366
6	79400	15.31	0.43800883574043
6	79957	15.41	0.62879735391697
6	80514	15.51	0.78531039043881
6	81071	15.61	0.91370559385808
6	81628	15.71	1.0190343806951
6	82185	15.81	1.1054406719047
6	82742	15.91	1.1763239259967
6	83307	16.01	1.2344728829817
6	83864	16.11	1.2821752809831
6	84421	16.21	1.3213078620836
6	84978	16.31	1.3534102084598
6	85535	16.41	1.3797453137308
6	86092	16.51	1.4013492725667
6	86649	16.61	1.4190720434691
6	87206	16.71	1.4336108884482
6	87763	16.81	1.4455378052084
6	88320	16.91	1.4502949065335
6	88885	17.01	1.3935559567532
6	89442	17.11	1.2733368701447
6	89999	17.21	1.098674244054
6	90556	17.31	0.87879676591527
6	91113	17.41	0.62298329276125
6	91670	17.51	0.34043137853565
6	92227	17.61	0.043031849081743
6	92784	17.71	-0.23417644595263
6	93341	17.81	-0.46158379949546
6	93898	17.91	-0.64813703535336
6	94463	18.01	-0.80117566522588
6	95020	18.11	-0.92672064505699
6	95577	18.21	-1.0297112558188
6	96134	18.31	-1.1141994282603
6	96691	18.41	-1.1835091568827
6	97248	18.51	-1.2403672749226
6	97805	18.61	-1.2870107353905
6	98362	18.71	-1.3252746188858
6	98919	18.81	-1.3566643306586
6	99476	18.91	-1.382414827345
6	100041	19.01	-1.4035392035215
6	100598	19.11	-1.4208685496044
6	101155	19.21	-1.4350846492011
6	101712	19.31	-1.4467468023362
6	102269	19.41	-1.4517201941775
6	102826	19.51	-1.3984004323884
6	103383	19.61	-1.280899381009
6	103940	19.71	-1.1083308503771
6	104497	19.81	-0.88999806036796
6	105054	19.91	-0.63525086466818
6	105619	20.01	-0.35335363991322
6	106176	20.11	-0.055983891306965
6	106733	20.21	0.22355126013309
6	107290	20.31	0.45286744637245
6	107847	20.41	0.64098658988812
6	108404	20.51	0.79530980944469
6	108961	20.61	0.92190860023926
6	109518	20.71	1.0257637030335
6	110075	20.81	1.1109610600446
6	110632	20.91	1.1808525670222
6	111197	21.01	1.2381879459468
6	111754	21.11	1.2852229265704
6	112311	21.21	1.32380799296
6	112868	21.31	1.3554611865732
6	113425	21.41	1.3814278301393
6	113982	21.51	1.402729522043
6	114539	21.61	1.4202043287796
6	115096	21.71	1.4345397567766
6	115653	21.81	1.4462998007627
6	116210	21.91	1.4512038299461
6	116775	22.01	1.3966149622046
6	117332	22.11	1.2781048258542
6	117889	22.21	1.104758616826
6	118446	22.31	0.88585193073989
6	119003	22.41	0.63070830476128
6	119560	22.51	0.3485673438103
6	120117	22.61	0.051185654371366
6	120674	22.71	-0.22748748564538
6	121231	22.81	-0.45609652227974
6	121788	22.91	-0.64363555681837
6	122353	23.01	-0.79748288496262
6	122910	23.11	-0.92369127904597
6	123467	23.21	-1.0272261205628
6	124024	23.31	-1.1121607517783
6	124581	23.41	-1.1818367320963
6	125138	23.51	-1.238995304092
6	125695	23.61	-1.2858852414524
6	126252	23.71	-1.3243513218473
6	126809	23.81	-1.355906905502
6	127366	23.91	-1.3817934749046
6	127931	24.01	-1.403029478104
6	128488	24.11	-1.4204503972248
6	129045	24.21	-1.434741618608
6	129602	24.31	-1.4464653977726
6	130159	24.41	-1.4513952146881
6	130716	24.51	-1.3972773206763
6	131273	24.61	-1.2791416668563
6	131830	24.71	-1.1060840673021
6	132387	24.81	-0.88739036841652
6	132944	24.91	-0.63239387292597
6	133509	25.01	-0.35034337810913
6	134066	25.11	-0.052966136909305
6	134623	25.21	0.2260268698226
6	135180	25.31	0.45489830857264
6	135737	25.41	0.64265260424108
6	136294	25.51	0.79667652148672
6	136851	25.61	0.92302978013947
6	137408	25.71	1.026683461059
6	137965	25.81	1.1117155819772
6	138522	25.91	1.1814715378073
6	139087	26.01	1.2386957175785
6	139644	26.11	1.2856394761656
6	140201	26.21	1.3241497087126
6	140758	26.31	1.3557415125099
6	141315	26.41	1.381657795045
6	141872	26.51	1.4029181733619
6	142429	26.61	1.4203590885685
6	142986	26.71	1.4346667137069
6	143543	26.81	1.4464039496644
6	144100	26.91	1.4513241957726
6	144665	27.01	1.3970315218256
6	145222	27.11	1.2787568961965
6	145779	27.21	1.1055921925461
6	146336	27.31	0.88681945319387
6	146893	27.41	0.63176835684509
6	147450	27.51	0.34968428947479
6	148007	27.61	0.052305397195695
6	148564	27.71	-0.22656890652364
6	149121	27.81	-0.45534296745835
6	149678	27.91	-0.64301737940227
6	150243	28.01	-0.79697576417033
6	150800	28.11	-0.92327526336611
6	151357	28.21	-1.0268848428069
6	151914	28.31	-1.1118807851517
6	152471	28.41	-1.1816070619506
6	153028	28.51	-1.2388068945789
6	153585	28.61	-1.2857306800289
6	154142	28.71	-1.3242245276459
6	154699	28.81	-1.3558028900945
6	155256	28.91	-1.3817081460427
6	155821	29.01	-1.4029594787171
6	156378	29.11	-1.4203929733469
6	156935	29.21	-1.4346945110272
6	157492	29.31	-1.4464267531491
6	158049	29.41	-1.4513505510322
6	158606	29.51	-1.3971227384758
6	159163	29.61	-1.2788996857299
6	159720	29.71	-1.1057747287548
6	160277	29.81	-0.88703132157519
6	160834	29.91	-0.63200048778356
6	161399	30.01	-0.34992887929945
6	161956	30.11	-0.052550599747647
6	162513	30.21	0.2263677550264
6	163070	30.31	0.45517795317025
6	163627	30.41	0.64288201021157
6	164184	30.51	0.7968647142846
6	164741	30.61	0.92318416378134
6	165298	30.71	1.0268101094169
6	165855	30.81	1.1118194777417
6	166412	30.91	1.1815567685211
6	166977	31.01	1.2387656364492
6	167534	31.11	1.2856968339921
6	168091	31.21	1.3241967621074
6	168648	31.31	1.3557801126822
6	169205	31.41	1.3816894606308
6	169762	31.51	1.4029441501705
6	170319	31.61	1.4203803985996
6	170876	31.71	1.4346841953547
6	171433	31.81	1.4464182907037
6	171990	31.91	1.451340770512
6	172555	32.01	1.397088887688
6	173112	32.11	1.2788466960817
6	173669	32.21	1.105706988989
6	174226	32.31	0.88695269654693
6	174783	32.41	0.6319143432556
6	175340	32.51	0.34983811123936
5	232	1.11	36.55
5	788	1.21	36.55
5	1344	1.31	36.55
5	1900	1.41	36.55
5	2456	1.51	36.55
5	3012	1.61	36.55
5	3568	1.71	36.55
5	4124	1.81	36.55
5	4680	1.91	36.55
5	5244	2.01	36.55
5	5800	2.11	36.55
5	6356	2.21	36.55
5	6912	2.31	36.55
5	7468	2.41	36.55
5	8024	2.51	36.55
5	8580	2.61	36.55
5	9136	2.71	36.55
5	9692	2.81	36.55
5	10248	2.91	36.55
5	10812	3.01	36.55
5	11368	3.11	36.55
5	11924	3.21	36.55
5	12480	3.31	36.55
5	13036	3.41	36.55
5	13592	3.51	36.55
5	14148	3.61	36.55
5	14704	3.71	36.55
5	15260	3.81	36.55
5	15816	3.91	36.55
5	16380	4.01	36.55
5	16936	4.11	36.55
5	17492	4.21	36.55
5	18048	4.31	36.55
5	18604	4.41	36.55
5	19160	4.51	36.55
5	19716	4.61	36.55
5	20272	4.71	36.55
5	20828	4.81	36.55
5	21384	4.91	36.55
5	21949	5.01	36.55
5	22506	5.11	36.55
5	23063	5.21	36.55
5	23620	5.31	36.55
5	24177	5.41	36.55
5	24734	5.51	36.55
5	25291	5.61	36.55
5	25848	5.71	36.55
5	26405	5.81	36.55
5	26962	5.91	36.55
5	27527	6.01	36.55
5	28084	6.11	36.55
5	28641	6.21	36.55
5	29198	6.31	36.55
5	29755	6.41	36.55
5	30312	6.51	36.55
5	30869	6.61	36.55
5	31426	6.71	36.55
5	31983	6.81	36.55
5	32540	6.91	36.55
5	33105	7.01	36.55
5	33662	7.11	36.55
5	34219	7.21	36.55
5	34776	7.31	36.55
5	35333	7.41	36.55
5	35890	7.51	36.55
5	36447	7.61	36.55
5	37004	7.71	36.55
5	37561	7.81	36.55
5	38118	7.91	36.55
5	38683	8.01	36.55
5	39240	8.11	36.55
5	39797	8.21	36.55
5	40354	8.31	36.55
5	40911	8.41	36.55
5	41468	8.51	36.55
5	42025	8.61	36.55
5	42582	8.71	36.55
5	43139	8.81	36.55
5	43696	8.91	36.55
5	44261	9.01	36.55
5	44818	9.11	36.55
5	45375	9.21	36.55
5	45932	9.31	36.55
5	46489	9.41	36.55
5	47046	9.51	36.55
5	47603	9.61	36.55
5	48160	9.71	36.55
5	48717	9.81	36.55
5	49274	9.91	36.55
5	49839	10.01	36.55
5	50396	10.11	36.55
5	50953	10.21	36.55
5	51510	10.31	36.55
5	52067	10.41	36.55
5	52624	10.51	36.55
5	53181	10.61	36.55
5	53738	10.71	36.55
5	54295	10.81	36.55
5	54852	10.91	36.55
5	55417	11.01	36.55
5	55974	11.11	36.55
5	56531	11.21	36.55
5	57088	11.31	36.55
5	57645	11.41	36.55
5	58202	11.51	36.55
5	58759	11.61	36.55
5	59316	11.71	36.55
5	59873	11.81	36.55
5	60430	11.91	36.55
5	60995	12.01	36.55
5	61552	12.11	36.55
5	62109	12.21	36.55
5	62666	12.31	36.55
5	63223	12.41	36.55
5	63780	12.51	36.55
5	64337	12.61	36.55
5	64894	12.71	36.55
5	65451	12.81	36.55
5	66008	12.91	36.55
5	66573	13.01	36.55
5	67130	13.11	36.55
5	67687	13.21	36.55
5	68244	13.31	36.55
5	68801	13.41	36.55
5	69358	13.51	36.55
5	69915	13.61	36.55
5	70472	13.71	36.55
5	71029	13.81	36.55
5	71586	13.91	36.55
5	72151	14.01	36.55
5	72708	14.11	36.55
5	73265	14.21	36.55
5	73822	14.31	36.55
5	74379	14.41	36.55
5	74936	14.51	36.55
5	75493	14.61	36.55
5	76050	14.71	36.55
5	76607	14.81	36.55
5	77164	14.91	36.55
5	77729	15.01	36.55
5	78286	15.11	36.55
5	78843	15.21	36.55
5	79400	15.31	36.55
5	79957	15.41	36.55
5	80514	15.51	36.55
5	81071	15.61	36.55
5	81628	15.71	36.55
5	82185	15.81	36.55
5	82742	15.91	36.55
5	83307	16.01	36.55
5	83864	16.11	36.55
5	84421	16.21	36.55
5	84978	16.31	36.55
5	85535	16.41	36.55
5	86092	16.51	36.55
5	86649	16.61	36.55
5	87206	16.71	36.55
5	87763	16.81	36.55
5	88320	16.91	36.55
5	88885	17.01	36.55
5	89442	17.11	36.55
5	89999	17.21	36.55
5	90556	17.31	36.55
5	91113	17.41	36.55
5	91670	17.51	36.55
5	92227	17.61	36.55
5	92784	17.71	36.55
5	93341	17.81	36.55
5	93898	17.91	36.55
5	94463	18.01	36.55
5	95020	18.11	36.55
5	95577	18.21	36.55
5	96134	18.31	36.55
5	96691	18.41	36.55
5	97248	18.51	36.55
5	97805	18.61	36.55
5	98362	18.71	36.55
5	98919	18.81	36.55
5	99476	18.91	36.55
5	100041	19.01	36.55
5	100598	19.11	36.55
5	101155	19.21	36.55
5	101712	19.31	36.55
5	102269	19.41	36.55
5	102826	19.51	36.55
5	103383	19.61	36.55
5	103940	19.71	36.55
5	104497	19.81	36.55
5	105054	19.91	36.55
5	105619	20.01	36.55
5	106176	20.11	36.55
5	106733	20.21	36.55
5	107290	20.31	36.55
5	107847	20.41	36.55
5	108404	20.51	36.55
5	108961	20.61	36.55
5	109518	20.71	36.55
5	110075	20.81	36.55
5	110632	20.91	36.55
5	111197	21.01	36.55
5	111754	21.11	36.55
5	112311	21.21	36.55
5	112868	21.31	36.55
5	113425	21.41	36.55
5	113982	21.51	36.55
5	114539	21.61	36.55
5	115096	21.71	36.55
5	115653	21.81	36.55
5	116210	21.91	36.55
5	116775	22.01	36.55
5	117332	22.11	36.55
5	117889	22.21	36.55
5	118446	22.31	36.55
5	119003	22.41	36.55
5	119560	22.51	36.55
5	120117	22.61	36.55
5	120674	22.71	36.55
5	121231	22.81	36.55
5	121788	22.91	36.55
5	122353	23.01	36.55
5	122910	23.11	36.55
5	123467	23.21	36.55
5	124024	23.31	36.55
5	124581	23.41	36.55
5	125138	23.51	36.55
5	125695	23.61	36.55
5	126252	23.71	36.55
5	126809	23.81	36.55
5	127366	23.91	36.55
5	127931	24.01	36.55
5	128488	24.11	36.55
5	129045	24.21	36.55
5	129602	24.31	36.55
5	130159	24.41	36.55
5	130716	24.51	36.55
5	131273	24.61	36.55
5	131830	24.71	36.55
5	132387	24.81	36.55
5	132944	24.91	36.55
5	133509	25.01	36.55
5	134066	25.11	36.55
5	134623	25.21	36.55
5	135180	25.31	36.55
5	135737	25.41	36.55
5	136294	25.51	36.55
5	136851	25.61	36.55
5	137408	25.71	36.55
5	137965	25.81	36.55
5	138522	25.91	36.55
5	139087	26.01	36.55
5	139644	26.11	36.55
5	140201	26.21	36.55
5	140758	26.31	36.55
5	141315	26.41	36.55
5	141872	26.51	36.55
5	142429	26.61	36.55
5	142986	26.71	36.55
5	143543	26.81	36.55
5	144100	26.91	36.55
5	144665	27.01	36.55
5	145222	27.11	36.55
5	145779	27.21	36.55
5	146336	27.31	36.55
5	146893	27.41	36.55
5	147450	27.51	36.55
5	148007	27.61	36.55
5	148564	27.71	36.55
5	149121	27.81	36.55
5	149678	27.91	36.55
5	150243	28.01	36.55
5	150800	28.11	36.55
5	151357	28.21	36.55
5	151914	28.31	36.55
5	152471	28.41	36.55
5	153028	28.51	36.55
5	153585	28.61	36.55
5	154142	28.71	36.55
5	154699	28.81	36.55
5	155256	28.91	36.55
5	155821	29.01	36.55
5	156378	29.11	36.55
5	156935	29.21	36.55
5	157492	29.31	36.55
5	158049	29.41	36.55
5	158606	29.51	36.55
5	159163	29.61	36.55
5	159720	29.71	36.55
5	160277	29.81	36.55
5	160834	29.91	36.55
5	161399	30.01	36.55
5	161956	30.11	36.55
5	162513	30.21	36.55
5	163070	30.31	36.55
5	163627	30.41	36.55
5	164184	30.51	36.55
5	164741	30.61	36.55
5	165298	30.71	36.55
5	165855	30.81	36.55
5	166412	30.91	36.55
5	166977	31.01	36.55
5	167534	31.11	36.55
5	168091	31.21	36.55
5	168648	31.31	36.55
5	169205	31.41	36.55
5	169762	31.51	36.55
5	170319	31.61	36.55
5	170876	31.71	36.55
5	171433	31.81	36.55
5	171990	31.91	36.55
5	172555	32.01	36.55
5	173112	32.11	36.55
5	173669	32.21	36.55
5	174226	32.31	36.55
5	174783	32.41	36.55
5	175340	32.51	36.55
4	232	1.11	99.217642974587
4	788	1.21	101.99542083538
4	1344	1.31	104.77319869345
4	1900	1.41	107.55097654785
4	2456	1.51	110.32875439787
4	3012	1.61	113.106532243
4	3568	1.71	115.88431008291
4	4124	1.81	118.66208791742
4	4680	1.91	121.43986574648
4	5244	2.01	124.21764357016
4	5800	2.11	126.9954213886
4	6356	2.21	129.773199202
4	6912	2.31	132.55097701064
4	7468	2.41	135.32875481482
4	8024	2.51	138.10653261486
4	8580	2.61	140.88431041112
4	9136	2.71	143.66208820393
4	9692	2.81	146.43986599364
4	10248	2.91	149.21764378061
4	10812	3.01	151.99542156516
4	11368	3.11	154.77319934759
4	11924	3.21	157.55097712822
4	12480	3.31	160.3287549073
4	13036	3.41	163.1065326851
4	13592	3.51	165.88431046185
4	14148	3.61	168.66208823775
4	14704	3.71	171.43986601299
4	15260	3.81	174.21764378773
4	15816	3.91	176.99542156211
4	16380	4.01	179.77319933627
4	16936	4.11	182.55097711031
4	17492	4.21	185.32875488431
4	18048	4.31	188.10653265835
4	18604	4.41	190.8843104325
4	19160	4.51	193.66208820679
4	19716	4.61	196.43986598126
4	20272	4.71	199.21764375594
4	20828	4.81	201.99542153085
4	21384	4.91	204.773199306
4	21949	5.01	207.55097708139
4	22506	5.11	210.32875622231
4	23063	5.21	213.10676186517
4	23620	5.31	215.88576760165
4	24177	5.41	218.66699805937
4	24734	5.51	221.45200322204
4	25291	5.61	224.24251795207
4	25848	5.71	227.04022773395
4	26405	5.81	229.84653460807
4	26962	5.91	232.66258886771
4	27527	6.01	235.48933415399
4	28084	6.11	238.3275445813
4	28641	6.21	241.17785519306
4	29198	6.31	244.04078694607
4	29755	6.41	246.91676720634
4	30312	6.51	249.80614653119
4	30869	6.61	252.70918267053
4	31426	6.71	255.62582919141
4	31983	6.81	258.55555957731
4	32540	6.91	261.49738505188
4	33105	7.01	264.44989090231
4	33662	7.11	267.41128001412
4	34219	7.21	270.37942246134
4	34776	7.31	273.35190998463
4	35333	7.41	276.32611464703
4	35890	7.51	279.2993235213
4	36447	7.61	282.26903880106
4	37004	7.71	285.23319334101
4	37561	7.81	288.19009136201
4	38118	7.91	291.13834173453
4	38683	8.01	294.07680324781
4	39240	8.11	297.00453971155
4	39797	8.21	299.92078312365
4	40354	8.31	302.82490345485
4	40911	8.41	305.71638386176
4	41468	8.51	308.59480035277
4	42025	8.61	311.45980510706
4	42582	8.71	314.31111279045
4	43139	8.81	317.14848932951
4	43696	8.91	319.97174270249
4	44261	9.01	322.78071538469
4	44818	9.11	325.57527815099
4	45375	9.21	328.35532499178
4	45932	9.31	331.12076894225
4	46489	9.41	333.87153866097
4	47046	9.51	336.60757788594
4	47603	9.61	339.32908191752
4	48160	9.71	342.03691207704
4	48717	9.81	344.7325601269
4	49274	9.91	347.41804318015
4	49839	10.01	350.09579907629
4	50396	10.11	352.76858353216
4	50953	10.21	355.43936930701
4	51510	10.31	358.11108461477
4	52067	10.41	360.78625076459
4	52624	10.51	363.46694258231
4	53181	10.61	366.15486214781
4	53738	10.71	368.85140575942
4	54295	10.81	371.55771886809
4	54852	10.91	374.27474114256
4	55417	11.01	377.0032434385
4	55974	11.11	379.74385812603
4	56531	11.21	382.49710396892
4	57088	11.31	385.26340653413
4	57645	11.41	388.04311493479
4	58202	11.51	390.83651556529
4	58759	11.61	393.64384336875
4	59316	11.71	396.46529108037
4	59873	11.81	399.30101681016
4	60430	11.91	402.15113546396
4	60995	12.01	405.01544201201
4	61552	12.11	407.89309113833
4	62109	12.21	410.7826537416
4	62666	12.31	413.68220393117
4	63223	12.41	416.58940781832
4	63780	12.51	419.50161273943
4	64337	12.61	422.41593648631
4	64894	12.71	425.32949030983
4	65451	12.81	428.23972843555
4	66008	12.91	431.14455175872
4	66573	13.01	434.04223828232
4	67130	13.11	436.93137536903
4	67687	13.21	439.81080416421
4	68244	13.31	442.67957400345
4	68801	13.41	445.53690501079
4	69358	13.51	448.38215741634
4	69915	13.61	451.21480638593
4	70472	13.71	454.03442137277
4	71029	13.81	456.84064917851
4	71586	13.91	459.6332000575
4	72151	14.01	462.41183631737
4	72708	14.11	465.17636296761
4	73265	14.21	467.92662004807
4	73822	14.31	470.66247633572
4	74379	14.41	473.38382496303
4	74936	14.51	476.09073246784
4	75493	14.61	478.78381415618
4	76050	14.71	481.46431376267
4	76607	14.81	484.13401710464
4	77164	14.91	486.79515766632
4	77729	15.01	489.45032204977
4	78286	15.11	492.10235617339
4	78843	15.21	494.75420291093
4	79400	15.31	497.4085714156
4	79957	15.41	500.06770342315
4	80514	15.51	502.73343793771
4	81071	15.61	505.40728358315
4	81628	15.71	508.09047795652
4	82185	15.81	510.78403631847
4	82742	15.91	513.48879153633
4	83307	16.01	516.20542685139
4	83864	16.11	518.9345027595
4	84421	16.21	521.67647906248
4	84978	16.31	524.43173295794
4	85535	16.41	527.20057387934
4	86092	16.51	529.98325566985
4	86649	16.61	532.77998656933
4	87206	16.71	535.59093740695
4	87763	16.81	538.41624832216
4	88320	16.91	541.25603326363
4	88885	17.01	544.11019572739
4	89442	17.11	546.97803734317
4	89999	17.21	549.85824444972
4	90556	17.31	552.74897775021
4	91113	17.41	555.6479647326
4	91670	17.51	558.5525923223
4	92227	17.61	561.45999905193
4	92784	17.71	564.36725927638
4	93341	17.81	567.2717207315
4	93898	17.91	570.17119144546
4	94463	18.01	573.06387323788
4	95020	18.11	575.94829097456
4	95577	18.21	578.82323453166
4	96134	18.31	581.68771118615
4	96691	18.41	584.54090655937
4	97248	18.51	587.38215257719
4	97805	18.61	590.21090118612
4	98362	18.71	593.0267027914
4	98919	18.81	595.82918856875
4	99476	18.91	598.6180559538
4	100041	19.01	601.39305673838
4	100598	19.11	604.15398730533
4	101155	19.21	606.90068061766
4	101712	19.31	609.63299964688
4	102269	19.41	612.35083290061
4	102826	19.51	615.05426554476
4	103383	19.61	617.74396511631
4	103940	19.71	620.42121934943
4	104497	19.81	623.08784770384
4	105054	19.91	625.74610820618
4	105619	20.01	628.3986040957
4	106176	20.11	631.04819105065
4	106733	20.21	633.697801063
4	107290	20.31	636.35010742887
4	107847	20.41	639.00732051928
4	108404	20.51	641.67125360832
4	108961	20.61	644.34339421231
4	109518	20.71	647.02496261273
4	110075	20.81	649.71695986545
4	110632	20.91	652.4202071849
4	111197	21.01	655.13537825298
4	111754	21.11	657.86302572348
4	112311	21.21	660.60360296499
4	112868	21.31	663.35748189767
4	113425	21.41	666.12496762559
4	113982	21.51	668.90631044035
4	114539	21.61	671.70171566824
4	115096	21.71	674.51135174835
4	115653	21.81	677.33535685937
4	116210	21.91	680.17384340732
4	116775	22.01	683.02672209998
4	117332	22.11	685.89331397764
4	117889	22.21	688.77232168006
4	118446	22.31	691.66191838019
4	119003	22.41	694.55984066906
4	119560	22.51	697.46348165013
4	120117	22.61	700.36998348888
4	120674	22.71	703.27641653802
4	121231	22.81	706.18011529248
4	121788	22.91	709.07887619745
4	122353	23.01	711.97089157049
4	122910	23.11	714.85467848238
4	123467	23.21	717.72902041464
4	124024	23.31	720.59291939843
4	124581	23.41	723.44555675169
4	125138	23.51	726.28626086998
4	125695	23.61	729.11448080377
4	126252	23.71	731.9297645825
4	126809	23.81	734.73174143294
4	127366	23.91	737.52010719188
4	127931	24.01	740.29461233953
4	128488	24.11	743.05505218278
4	129045	24.21	745.80125880198
4	129602	24.31	748.53309444452
4	130159	24.41	751.25044704284
4	130716	24.51	753.95340435752
4	131273	24.61	756.64264110919
4	131830	24.71	759.31945108573
4	132387	24.81	761.98565838005
4	132944	24.91	764.64352440358
4	133509	25.01	767.29565469551
4	134066	25.11	769.94490628998
4	134623	25.21	772.59420970423
4	135180	25.31	775.24623333431
4	135737	25.41	777.90318326434
4	136294	25.51	780.56686925166
4	136851	25.61	783.23877592763
4	137408	25.71	785.92012120704
4	137965	25.81	788.61190420426
4	138522	25.91	791.31494454103
4	139087	26.01	794.02991459267
4	139644	26.11	796.75736594112
4	140201	26.21	799.49775107568
4	140758	26.31	802.25144119521
4	141315	26.41	805.01874081202
4	141872	26.51	807.7998997323
4	142429	26.61	810.59512288412
4	142986	26.71	813.40457837987
4	143543	26.81	816.22840413027
4	144100	26.91	819.06671232848
4	144665	27.01	821.9194146455
4	145222	27.11	824.78583478758
4	145779	27.21	827.66467764111
4	146336	27.31	830.55411809853
4	146893	27.41	833.45189400713
4	147450	27.51	836.35539932399
4	148007	27.61	839.26177671794
4	148564	27.71	842.16809599458
4	149121	27.81	845.07168983071
4	149678	27.91	847.97035308084
4	150243	28.01	850.86227675762
4	150800	28.11	853.74597686137
4	151357	28.21	856.62023599547
4	151914	28.31	859.48405547065
4	152471	28.41	862.33661601388
4	153028	28.51	865.17724553595
4	153585	28.61	868.00539268956
4	154142	28.71	870.82060517795
4	154699	28.81	873.62251196021
4	155256	28.91	876.41080865355
4	155821	29.01	879.1852455581
4	156378	29.11	881.94561783297
4	156935	29.21	884.6917574373
4	157492	29.31	887.42352651903
4	158049	29.41	890.14081293164
4	158606	29.51	892.84370479315
4	159163	29.61	895.53287781355
4	159720	29.71	898.20962661445
4	160277	29.81	900.87577592687
4	160834	29.91	903.53358762845
4	161399	30.01	906.18566757515
4	161956	30.11	908.83487298792
4	162513	30.21	911.48413418097
4	163070	30.31	914.13611887563
4	163627	30.41	916.79303256573
4	164184	30.51	919.45668452436
4	164741	30.61	922.12855898561
4	165298	30.71	924.80987353841
4	165855	30.81	927.50162702978
4	166412	30.91	930.20463886214
4	166977	31.01	932.91958123091
4	167534	31.11	935.64700557043
4	168091	31.21	938.38736424894
4	168648	31.31	941.14102836596
4	169205	31.41	943.90830235233
4	169762	31.51	946.68943594739
4	170319	31.61	949.48463402438
4	170876	31.71	952.29406465071
4	171433	31.81	955.1178657002
4	171990	31.91	957.95614933668
4	172555	32.01	960.80882736383
4	173112	32.11	963.67522385503
4	173669	32.21	966.5540440061
4	174226	32.31	969.44346294626
4	174783	32.41	972.34121869581
4	175340	32.51	975.2447053294
3	232	1.11	27.777778619612
3	788	1.21	27.777778599967
3	1344	1.31	27.777778569105
3	1900	1.41	27.777778529595
3	2456	1.51	27.777778483698
3	3012	1.61	27.777778433385
3	3568	1.71	27.777778380352
3	4124	1.81	27.777778326039
3	4680	1.91	27.77777827165
3	5244	2.01	27.777778218173
3	5800	2.11	27.777778166406
3	6356	2.21	27.777778116967
3	6912	2.31	27.777778070327
3	7468	2.41	27.777778026819
3	8024	2.51	27.77777798666
3	8580	2.61	27.77777794997
3	9136	2.71	27.777777916782
3	9692	2.81	27.777777887063
3	10248	2.91	27.777777860724
3	10812	3.01	27.777777837628
3	11368	3.11	27.777777817609
3	11924	3.21	27.777777800471
3	12480	3.31	27.777777786005
3	13036	3.41	27.777777773991
3	13592	3.51	27.777777764203
3	14148	3.61	27.777777756416
3	14704	3.71	27.777777750412
3	15260	3.81	27.777777745977
3	15816	3.91	27.77777774291
3	16380	4.01	27.777777741018
3	16936	4.11	27.777777740126
3	17492	4.21	27.77777774007
3	18048	4.31	27.7777777407
3	18604	4.41	27.777777741882
3	19160	4.51	27.777777743495
3	19716	4.61	27.777777745434
3	20272	4.71	27.777777747604
3	20828	4.81	27.777777749925
3	21384	4.91	27.777777752329
3	21949	5.01	27.777777754758
3	22506	5.11	27.777846021452
3	23063	5.21	27.782059596653
3	23620	5.31	27.795775862036
3	24177	5.41	27.823056285431
3	24734	5.51	27.866721940626
3	25291	5.61	27.928063782047
3	25848	5.71	28.005327711868
3	26405	5.81	28.095658800357
3	26962	5.91	28.196709510244
3	27527	6.01	28.30655404332
3	28084	6.11	28.423612574297
3	28641	6.21	28.54658909619
3	29198	6.31	28.674420431867
3	29755	6.41	28.80623440578
3	30312	6.51	28.941313946553
3	30869	6.61	29.078388981218
3	31426	6.71	29.213351897492
3	31983	6.81	29.341385131305
3	32540	6.91	29.457981732945
3	33105	7.01	29.559024895864
3	33662	7.11	29.640856051762
3	34219	7.21	29.700331349918
3	34776	7.31	29.734866440411
3	35333	7.41	29.742492528104
3	35890	7.51	29.72320356612
3	36447	7.61	29.680432143932
3	37004	7.71	29.618396925437
3	37561	7.81	29.540558684394
3	38118	7.91	29.449756460671
3	38683	8.01	29.348319255796
3	39240	8.11	29.238157662213
3	39797	8.21	29.120839031188
3	40354	8.31	28.997649136664
3	40911	8.41	28.86964276111
3	41468	8.51	28.737685193533
3	42025	8.61	28.602486272297
3	42582	8.71	28.464628312097
3	43139	8.81	28.324589013804
3	43696	8.91	28.182760258515
3	44261	9.01	28.039463525222
3	44818	9.11	27.894962538668
3	45375	9.21	27.749473644999
3	45932	9.31	27.603174323409
3	46489	9.41	27.456210168651
3	47046	9.51	27.308798307138
3	47603	9.61	27.165456941051
3	48160	9.71	27.033088438825
3	48717	9.81	26.917629526736
3	49274	9.91	26.823966096352
3	49839	10.01	26.755942052805
3	50396	10.11	26.716381687291
3	50953	10.21	26.707072901132
3	51510	10.31	26.725876201723
3	52067	10.41	26.768249212414
3	52624	10.51	26.829957594714
3	53181	10.61	26.90752771624
3	53738	10.71	26.998109988574
3	54295	10.81	27.099366756701
3	54852	10.91	27.209380329303
3	55417	11.01	27.326577531569
3	55974	11.11	27.449667812217
3	56531	11.21	27.577592469696
3	57088	11.31	27.709482999991
3	57645	11.41	27.844626927306
3	58202	11.51	27.982439773336
3	58759	11.61	28.122442062297
3	59316	11.71	28.264240457043
3	59873	11.81	28.407512284116
3	60430	11.91	28.5515861915
3	60995	12.01	28.691427297144
3	61552	12.11	28.820647386679
3	62109	12.21	28.933709262078
3	62666	12.31	29.025954034973
3	63223	12.41	29.093614170539
3	63780	12.51	29.133813231597
3	64337	12.61	29.144595455085
3	64894	12.71	29.127327372936
3	65451	12.81	29.086213776084
3	66008	12.91	29.025538551786
3	66573	13.01	28.948815979671
3	67130	13.11	28.858928993054
3	67687	13.21	28.758242601384
3	68244	13.31	28.648696936139
3	68801	13.41	28.531883580877
3	69358	13.51	28.409108188466
3	69915	13.61	28.281441849017
3	70472	13.71	28.14976322948
3	71029	13.81	28.014793142794
3	71586	13.91	27.877122906629
3	72151	14.01	27.737237607429
3	72708	14.11	27.595535185033
3	73265	14.21	27.452342088714
3	73822	14.31	27.307926120577
3	74379	14.41	27.162546024449
3	74936	14.51	27.019330871672
3	75493	14.61	26.884559196285
3	76050	14.71	26.764258967301
3	76607	14.81	26.663521929862
3	77164	14.91	26.586493202078
3	77729	15.01	26.536374688625
3	78286	15.11	26.515419708568
3	78843	15.21	26.523668857685
3	79400	15.31	26.557383788157
3	79957	15.41	26.611989529068
3	80514	15.51	26.683733010807
3	81071	15.61	26.769535409097
3	81628	15.71	26.866871015679
3	82185	15.81	26.973667870074
3	82742	15.91	27.088226243028
3	83307	16.01	27.209151764536
3	83864	16.11	27.335300565535
3	84421	16.21	27.465734274985
3	84978	16.31	27.599683101797
3	85535	16.41	27.736515549161
3	86092	16.51	27.875713569743
3	86649	16.61	28.016852184292
3	87206	16.71	28.159582761803
3	87763	16.81	28.303619303423
3	88320	16.91	28.448676617794
3	88885	17.01	28.590971447913
3	89442	17.11	28.724006207991
3	89999	17.21	28.841930784337
3	90556	17.31	28.939810791426
3	91113	17.41	29.013638834762
3	91670	17.51	29.060332154734
3	92227	17.61	29.077746642843
3	92784	17.71	29.066350790361
3	93341	17.81	29.030054467132
3	93898	17.91	28.973331085061
3	94463	18.01	28.899850399997
3	95020	18.11	28.812622889912
3	95577	18.21	28.714118195293
3	96134	18.31	28.606362281514
3	96691	18.41	28.491017145825
3	97248	18.51	28.369446204845
3	97805	18.61	28.242767935079
3	98362	18.71	28.111899876827
3	98919	18.81	27.977594732713
3	99476	18.91	27.840469981056
3	100041	19.01	27.701032169144
3	100598	19.11	27.559696842186
3	101155	19.21	27.416804891984
3	101712	19.31	27.272635968552
3	102269	19.41	27.127465418657
3	102826	19.51	26.984833896344
3	103383	19.61	26.851159734065
3	103940	19.71	26.732358896103
3	104497	19.81	26.633424036685
3	105054	19.91	26.558413554113
3	105619	20.01	26.510454337265
3	106176	20.11	26.4917309481
3	106733	20.21	26.50196337238
3	107290	20.31	26.53730527926
3	107847	20.41	26.593245707503
3	108404	20.51	26.666084097724
3	108961	20.61	26.752784702327
3	109518	20.71	26.85085715093
3	110075	20.81	26.958258472424
3	110632	20.91	27.073312718935
3	111197	21.01	27.194645029473
3	111754	21.11	27.321127539161
3	112311	21.21	27.451835005966
3	112868	21.31	27.58600840916
3	113425	21.41	27.723025087377
3	113982	21.51	27.862374241425
3	114539	21.61	28.003636838057
3	115096	21.71	28.146469124058
3	115653	21.81	28.290589102065
3	116210	21.91	28.435718002991
3	116775	22.01	28.578225822974
3	117332	22.11	28.711663912643
3	117889	22.21	28.83014072939
3	118446	22.31	28.928685230703
3	119003	22.41	29.003257937223
3	119560	22.51	29.050748330675
3	120117	22.61	29.068986857173
3	120674	22.71	29.058323427182
3	121231	22.81	29.022627945499
3	121788	22.91	28.966397462768
3	122353	23.01	28.89332112684
3	122910	23.11	28.806425323882
3	123467	23.21	28.70819274464
3	124024	23.31	28.600660060247
3	124581	23.41	28.485498050406
3	125138	23.51	28.364077336405
3	125695	23.61	28.237522305085
3	126252	23.71	28.106755345282
3	126809	23.81	27.97253313711
3	127366	23.91	27.835476421811
3	127931	24.01	27.696094423411
3	128488	24.11	27.554804882971
3	129045	24.21	27.411950493662
3	129602	24.31	27.267812383245
3	130159	24.41	27.122668052051
3	130716	24.51	26.980114349492
3	131273	24.61	26.846588675637
3	131830	24.71	26.727991635756
3	132387	24.81	26.629302292308
3	132944	24.91	26.554567145367
3	133509	25.01	26.506902788277
3	134066	25.11	26.488484344384
3	134623	25.21	26.498987841018
3	135180	25.31	26.534552121643
3	135737	25.41	26.590674973809
3	136294	25.51	26.663663015186
3	136851	25.61	26.75048638586
3	137408	25.71	26.8486595454
3	137965	25.81	26.956143484941
3	138522	25.91	27.071265507027
3	139087	26.01	27.192653417141
3	139644	26.11	27.319181537848
3	140201	26.21	27.449926421574
3	140758	26.31	27.584130519676
3	141315	26.41	27.721172378408
3	141872	26.51	27.86054218925
3	142429	26.61	28.001821731647
3	142986	26.71	28.144667919078
3	143543	26.81	28.288799301099
3	144100	26.91	28.433937906563
3	144665	27.01	28.576474582405
3	145222	27.11	28.709967753931
3	145779	27.21	28.828520179047
3	146336	27.31	28.927155771518
3	146893	27.41	29.001830636677
3	147450	27.51	29.049430435655
3	148007	27.61	29.067782111948
3	148564	27.71	29.057219263808
3	149121	27.81	29.021606294275
3	149678	27.91	28.965443500247
3	150243	28.01	28.892422692631
3	150800	28.11	28.805572442229
3	151357	28.21	28.707377231949
3	151914	28.31	28.599875203121
3	152471	28.41	28.48473834152
3	153028	28.51	28.363338257835
3	153585	28.61	28.23680015056
3	154142	28.71	28.106047074368
3	154699	28.81	27.971836255593
3	155256	28.91	27.834788883566
3	155821	29.01	27.695414549904
3	156378	29.11	27.554131297218
3	156935	29.21	27.411282066058
3	157492	29.31	27.267148187119
3	158049	29.41	27.122007456828
3	158606	29.51	26.979464462325
3	159163	29.61	26.84595922909
3	159720	29.71	26.727390247301
3	160277	29.81	26.628734707679
3	160834	29.91	26.554037471766
3	161399	30.01	26.506413715074
3	161956	30.11	26.488037261118
3	162513	30.21	26.498578083731
3	163070	30.31	26.534172984659
3	163627	30.41	26.590320956139
3	164184	30.51	26.663329604102
3	164741	30.61	26.750169879354
3	165298	30.71	26.848356906536
3	165855	30.81	26.955852222374
3	166412	30.91	27.070983576984
3	166977	31.01	27.19237914302
3	167534	31.11	27.318913544249
3	168091	31.21	27.449663580191
3	168648	31.31	27.583871904903
3	169205	31.41	27.720917230929
3	169762	31.51	27.860289886159
3	170319	31.61	28.001571761945
3	170876	31.71	28.144419863567
3	171433	31.81	28.288552815892
3	171990	31.91	28.433692757653
3	172555	32.01	28.576233407281
3	173112	32.11	28.709734164377
3	173669	32.21	28.828297001933
3	174226	32.31	28.926945139104
3	174783	32.41	29.001634073159
3	175340	32.51	29.049248939068
1	232	1.11	0
1	788	1.21	0
1	1344	1.31	0
1	1900	1.41	0
1	2456	1.51	0
1	3012	1.61	0
1	3568	1.71	0
1	4124	1.81	0
1	4680	1.91	0
1	5244	2.01	0
1	5800	2.11	0
1	6356	2.21	0
1	6912	2.31	0
1	7468	2.41	0
1	8024	2.51	0
1	8580	2.61	0
1	9136	2.71	0
1	9692	2.81	0
1	10248	2.91	0
1	10812	3.01	0
1	11368	3.11	0
1	11924	3.21	0
1	12480	3.31	0
1	13036	3.41	0
1	13592	3.51	0
1	14148	3.61	0
1	14704	3.71	0
1	15260	3.81	0
1	15816	3.91	0
1	16380	4.01	0
1	16936	4.11	0
1	17492	4.21	0
1	18048	4.31	0
1	18604	4.41	0
1	19160	4.51	0
1	19716	4.61	0
1	20272	4.71	0
1	20828	4.81	0
1	21384	4.91	0
1	21949	5.01	0
1	22506	5.11	0
1	23063	5.21	0
1	23620	5.31	0
1	24177	5.41	0
1	24734	5.51	0
1	25291	5.61	0
1	25848	5.71	0
1	26405	5.81	0
1	26962	5.91	0
1	27527	6.01	0
1	28084	6.11	0
1	28641	6.21	0
1	29198	6.31	0
1	29755	6.41	0
1	30312	6.51	0
1	30869	6.61	0
1	31426	6.71	0
1	31983	6.81	0
1	32540	6.91	0
1	33105	7.01	0
1	33662	7.11	0
1	34219	7.21	0
1	34776	7.31	0
1	35333	7.41	0
1	35890	7.51	0
1	36447	7.61	0
1	37004	7.71	0
1	37561	7.81	0
1	38118	7.91	0
1	38683	8.01	0
1	39240	8.11	0
1	39797	8.21	0
1	40354	8.31	0
1	40911	8.41	0
1	41468	8.51	0
1	42025	8.61	0
1	42582	8.71	0
1	43139	8.81	0
1	43696	8.91	0
1	44261	9.01	0
1	44818	9.11	0
1	45375	9.21	0
1	45932	9.31	0
1	46489	9.41	0
1	47046	9.51	0
1	47603	9.61	0
1	48160	9.71	0
1	48717	9.81	0
1	49274	9.91	0
1	49839	10.01	0
1	50396	10.11	0
1	50953	10.21	0
1	51510	10.31	0
1	52067	10.41	0
1	52624	10.51	0
1	53181	10.61	0
1	53738	10.71	0
1	54295	10.81	0
1	54852	10.91	0
1	55417	11.01	0
1	55974	11.11	0
1	56531	11.21	0
1	57088	11.31	0
1	57645	11.41	0
1	58202	11.51	0
1	58759	11.61	0
1	59316	11.71	0
1	59873	11.81	0
1	60430	11.91	0
1	60995	12.01	0
1	61552	12.11	0
1	62109	12.21	0
1	62666	12.31	0
1	63223	12.41	0
1	63780	12.51	0
1	64337	12.61	0
1	64894	12.71	0
1	65451	12.81	0
1	66008	12.91	0
1	66573	13.01	0
1	67130	13.11	0
1	67687	13.21	0
1	68244	13.31	0
1	68801	13.41	0
1	69358	13.51	0
1	69915	13.61	0
1	70472	13.71	0
1	71029	13.81	0
1	71586	13.91	0
1	72151	14.01	0
1	72708	14.11	0
1	73265	14.21	0
1	73822	14.31	0
1	74379	14.41	0
1	74936	14.51	0
1	75493	14.61	0
1	76050	14.71	0
1	76607	14.81	0
1	77164	14.91	0
1	77729	15.01	0
1	78286	15.11	0
1	78843	15.21	0
1	79400	15.31	0
1	79957	15.41	0
1	80514	15.51	0
1	81071	15.61	0
1	81628	15.71	0
1	82185	15.81	0
1	82742	15.91	0
1	83307	16.01	0
1	83864	16.11	0
1	84421	16.21	0
1	84978	16.31	0
1	85535	16.41	0
1	86092	16.51	0
1	86649	16.61	0
1	87206	16.71	0
1	87763	16.81	0
1	88320	16.91	0
1	88885	17.01	0
1	89442	17.11	0
1	89999	17.21	0
1	90556	17.31	0
1	91113	17.41	0
1	91670	17.51	0
1	92227	17.61	0
1	92784	17.71	0
1	93341	17.81	0
1	93898	17.91	0
1	94463	18.01	0
1	95020	18.11	0
1	95577	18.21	0
1	96134	18.31	0
1	96691	18.41	0
1	97248	18.51	0
1	97805	18.61	0
1	98362	18.71	0
1	98919	18.81	0
1	99476	18.91	0
1	100041	19.01	0
1	100598	19.11	0
1	101155	19.21	0
1	101712	19.31	0
1	102269	19.41	0
1	102826	19.51	0
1	103383	19.61	0
1	103940	19.71	0
1	104497	19.81	0
1	105054	19.91	0
1	105619	20.01	0
1	106176	20.11	0
1	106733	20.21	0
1	107290	20.31	0
1	107847	20.41	0
1	108404	20.51	0
1	108961	20.61	0
1	109518	20.71	0
1	110075	20.81	0
1	110632	20.91	0
1	111197	21.01	0
1	111754	21.11	0
1	112311	21.21	0
1	112868	21.31	0
1	113425	21.41	0
1	113982	21.51	0
1	114539	21.61	0
1	115096	21.71	0
1	115653	21.81	0
1	116210	21.91	0
1	116775	22.01	0
1	117332	22.11	0
1	117889	22.21	0
1	118446	22.31	0
1	119003	22.41	0
1	119560	22.51	0
1	120117	22.61	0
1	120674	22.71	0
1	121231	22.81	0
1	121788	22.91	0
1	122353	23.01	0
1	122910	23.11	0
1	123467	23.21	0
1	124024	23.31	0
1	124581	23.41	0
1	125138	23.51	0
1	125695	23.61	0
1	126252	23.71	0
1	126809	23.81	0
1	127366	23.91	0
1	127931	24.01	0
1	128488	24.11	0
1	129045	24.21	0
1	129602	24.31	0
1	130159	24.41	0
1	130716	24.51	0
1	131273	24.61	0
1	131830	24.71	0
1	132387	24.81	0
1	132944	24.91	0
1	133509	25.01	0
1	134066	25.11	0
1	134623	25.21	0
1	135180	25.31	0
1	135737	25.41	0
1	136294	25.51	0
1	136851	25.61	0
1	137408	25.71	0
1	137965	25.81	0
1	138522	25.91	0
1	139087	26.01	0
1	139644	26.11	0
1	140201	26.21	0
1	140758	26.31	0
1	141315	26.41	0
1	141872	26.51	0
1	142429	26.61	0
1	142986	26.71	0
1	143543	26.81	0
1	144100	26.91	0
1	144665	27.01	0
1	145222	27.11	0
1	145779	27.21	0
1	146336	27.31	0
1	146893	27.41	0
1	147450	27.51	0
1	148007	27.61	0
1	148564	27.71	0
1	149121	27.81	0
1	149678	27.91	0
1	150243	28.01	0
1	150800	28.11	0
1	151357	28.21	0
1	151914	28.31	0
1	152471	28.41	0
1	153028	28.51	0
1	153585	28.61	0
1	154142	28.71	0
1	154699	28.81	0
1	155256	28.91	0
1	155821	29.01	0
1	156378	29.11	0
1	156935	29.21	0
1	157492	29.31	0
1	158049	29.41	0
1	158606	29.51	0
1	159163	29.61	0
1	159720	29.71	0
1	160277	29.81	0
1	160834	29.91	0
1	161399	30.01	0
1	161956	30.11	0
1	162513	30.21	0
1	163070	30.31	0
1	163627	30.41	0
1	164184	30.51	0
1	164741	30.61	0
1	165298	30.71	0
1	165855	30.81	0
1	166412	30.91	0
1	166977	31.01	0
1	167534	31.11	0
1	168091	31.21	0
1	168648	31.31	0
1	169205	31.41	0
1	169762	31.51	0
1	170319	31.61	0
1	170876	31.71	0
1	171433	31.81	0
1	171990	31.91	0
1	172555	32.01	0
1	173112	32.11	0
1	173669	32.21	0
1	174226	32.31	0
1	174783	32.41	0
1	175340	32.51	0
0	232	1.11	-1
0	788	1.21	-1
0	1344	1.31	-1
0	1900	1.41	-1
0	2456	1.51	-1
0	3012	1.61	-1
0	3568	1.71	-1
0	4124	1.81	-1
0	4680	1.91	-1
0	5244	2.01	-1
0	5800	2.11	-1
0	6356	2.21	-1
0	6912	2.31	-1
0	7468	2.41	-1
0	8024	2.51	-1
0	8580	2.61	-1
0	9136	2.71	-1
0	9692	2.81	-1
0	10248	2.91	-1
0	10812	3.01	-1
0	11368	3.11	-1
0	11924	3.21	-1
0	12480	3.31	-1
0	13036	3.41	-1
0	13592	3.51	-1
0	14148	3.61	-1
0	14704	3.71	-1
0	15260	3.81	-1
0	15816	3.91	-1
0	16380	4.01	-1
0	16936	4.11	-1
0	17492	4.21	-1
0	18048	4.31	-1
0	18604	4.41	-1
0	19160	4.51	-1
0	19716	4.61	-1
0	20272	4.71	-1
0	20828	4.81	-1
0	21384	4.91	-1
0	21949	5.01	-1
0	22506	5.11	-1
0	23063	5.21	-1
0	23620	5.31	-1
0	24177	5.41	-1
0	24734	5.51	-1
0	25291	5.61	-1
0	25848	5.71	-1
0	26405	5.81	-1
0	26962	5.91	-1
0	27527	6.01	-1
0	28084	6.11	-1
0	28641	6.21	-1
0	29198	6.31	-1
0	29755	6.41	-1
0	30312	6.51	-1
0	30869	6.61	-1
0	31426	6.71	-1
0	31983	6.81	-1
0	32540	6.91	-1
0	33105	7.01	-1
0	33662	7.11	-1
0	34219	7.21	-1
0	34776	7.31	-1
0	35333	7.41	-1
0	35890	7.51	-1
0	36447	7.61	-1
0	37004	7.71	-1
0	37561	7.81	-1
0	38118	7.91	-1
0	38683	8.01	-1
0	39240	8.11	-1
0	39797	8.21	-1
0	40354	8.31	-1
0	40911	8.41	-1
0	41468	8.51	-1
0	42025	8.61	-1
0	42582	8.71	-1
0	43139	8.81	-1
0	43696	8.91	-1
0	44261	9.01	-1
0	44818	9.11	-1
0	45375	9.21	-1
0	45932	9.31	-1
0	46489	9.41	-1
0	47046	9.51	-1
0	47603	9.61	-1
0	48160	9.71	-1
0	48717	9.81	-1
0	49274	9.91	-1
0	49839	10.01	-1
0	50396	10.11	-1
0	50953	10.21	-1
0	51510	10.31	-1
0	52067	10.41	-1
0	52624	10.51	-1
0	53181	10.61	-1
0	53738	10.71	-1
0	54295	10.81	-1
0	54852	10.91	-1
0	55417	11.01	-1
0	55974	11.11	-1
0	56531	11.21	-1
0	57088	11.31	-1
0	57645	11.41	-1
0	58202	11.51	-1
0	58759	11.61	-1
0	59316	11.71	-1
0	59873	11.81	-1
0	60430	11.91	-1
0	60995	12.01	-1
0	61552	12.11	-1
0	62109	12.21	-1
0	62666	12.31	-1
0	63223	12.41	-1
0	63780	12.51	-1
0	64337	12.61	-1
0	64894	12.71	-1
0	65451	12.81	-1
0	66008	12.91	-1
0	66573	13.01	-1
0	67130	13.11	-1
0	67687	13.21	-1
0	68244	13.31	-1
0	68801	13.41	-1
0	69358	13.51	-1
0	69915	13.61	-1
0	70472	13.71	-1
0	71029	13.81	-1
0	71586	13.91	-1
0	72151	14.01	-1
0	72708	14.11	-1
0	73265	14.21	-1
0	73822	14.31	-1
0	74379	14.41	-1
0	74936	14.51	-1
0	75493	14.61	-1
0	76050	14.71	-1
0	76607	14.81	-1
0	77164	14.91	-1
0	77729	15.01	-1
0	78286	15.11	-1
0	78843	15.21	-1
0	79400	15.31	-1
0	79957	15.41	-1
0	80514	15.51	-1
0	81071	15.61	-1
0	81628	15.71	-1
0	82185	15.81	-1
0	82742	15.91	-1
0	83307	16.01	-1
0	83864	16.11	-1
0	84421	16.21	-1
0	84978	16.31	-1
0	85535	16.41	-1
0	86092	16.51	-1
0	86649	16.61	-1
0	87206	16.71	-1
0	87763	16.81	-1
0	88320	16.91	-1
0	88885	17.01	-1
0	89442	17.11	-1
0	89999	17.21	-1
0	90556	17.31	-1
0	91113	17.41	-1
0	91670	17.51	-1
0	92227	17.61	-1
0	92784	17.71	-1
0	93341	17.81	-1
0	93898	17.91	-1
0	94463	18.01	-1
0	95020	18.11	-1
0	95577	18.21	-1
0	96134	18.31	-1
0	96691	18.41	-1
0	97248	18.51	-1
0	97805	18.61	-1
0	98362	18.71	-1
0	98919	18.81	-1
0	99476	18.91	-1
0	100041	19.01	-1
0	100598	19.11	-1
0	101155	19.21	-1
0	101712	19.31	-1
0	102269	19.41	-1
0	102826	19.51	-1
0	103383	19.61	-1
0	103940	19.71	-1
0	104497	19.81	-1
0	105054	19.91	-1
0	105619	20.01	-1
0	106176	20.11	-1
0	106733	20.21	-1
0	107290	20.31	-1
0	107847	20.41	-1
0	108404	20.51	-1
0	108961	20.61	-1
0	109518	20.71	-1
0	110075	20.81	-1
0	110632	20.91	-1
0	111197	21.01	-1
0	111754	21.11	-1
0	112311	21.21	-1
0	112868	21.31	-1
0	113425	21.41	-1
0	113982	21.51	-1
0	114539	21.61	-1
0	115096	21.71	-1
0	115653	21.81	-1
0	116210	21.91	-1
0	116775	22.01	-1
0	117332	22.11	-1
0	117889	22.21	-1
0	118446	22.31	-1
0	119003	22.41	-1
0	119560	22.51	-1
0	120117	22.61	-1
0	120674	22.71	-1
0	121231	22.81	-1
0	121788	22.91	-1
0	122353	23.01	-1
0	122910	23.11	-1
0	123467	23.21	-1
0	124024	23.31	-1
0	124581	23.41	-1
0	125138	23.51	-1
0	125695	23.61	-1
0	126252	23.71	-1
0	126809	23.81	-1
0	127366	23.91	-1
0	127931	24.01	-1
0	128488	24.11	-1
0	129045	24.21	-1
0	129602	24.31	-1
0	130159	24.41	-1
0	130716	24.51	-1
0	131273	24.61	-1
0	131830	24.71	-1
0	132387	24.81	-1
0	132944	24.91	-1
0	133509	25.01	-1
0	134066	25.11	-1
0	134623	25.21	-1
0	135180	25.31	-1
0	135737	25.41	-1
0	136294	25.51	-1
0	136851	25.61	-1
0	137408	25.71	-1
0	137965	25.81	-1
0	138522	25.91	-1
0	139087	26.01	-1
0	139644	26.11	-1
0	140201	26.21	-1
0	140758	26.31	-1
0	141315	26.41	-1
0	141872	26.51	-1
0	142429	26.61	-1
0	142986	26.71	-1
0	143543	26.81	-1
0	144100	26.91	-1
0	144665	27.01	-1
0	145222	27.11	-1
0	145779	27.21	-1
0	146336	27.31	-1
0	146893	27.41	-1
0	147450	27.51	-1
0	148007	27.61	-1
0	148564	27.71	-1
0	149121	27.81	-1
0	149678	27.91	-1
0	150243	28.01	-1
0	150800	28.11	-1
0	151357	28.21	-1
0	151914	28.31	-1
0	152471	28.41	-1
0	153028	28.51	-1
0	153585	28.61	-1
0	154142	28.71	-1
0	154699	28.81	-1
0	155256	28.91	-1
0	155821	29.01	-1
0	156378	29.11	-1
0	156935	29.21	-1
0	157492	29.31	-1
0	158049	29.41	-1
0	158606	29.51	-1
0	159163	29.61	-1
0	159720	29.71	-1
0	160277	29.81	-1
0	160834	29.91	-1
0	161399	30.01	-1
0	161956	30.11	-1
0	162513	30.21	-1
0	163070	30.31	-1
0	163627	30.41	-1
0	164184	30.51	-1
0	164741	30.61	-1
0	165298	30.71	-1
0	165855	30.81	-1
0	166412	30.91	-1
0	166977	31.01	-1
0	167534	31.11	-1
0	168091	31.21	-1
0	168648	31.31	-1
0	169205	31.41	-1
0	169762	31.51	-1
0	170319	31.61	-1
0	170876	31.71	-1
0	171433	31.81	-1
0	171990	31.91	-1
0	172555	32.01	-1
0	173112	32.11	-1
0	173669	32.21	-1
0	174226	32.31	-1
0	174783	32.41	-1
0	175340	32.51	-1
2	232	1.11	0
2	788	1.21	0
2	1344	1.31	0
2	1900	1.41	0
2	2456	1.51	0
2	3012	1.61	0
2	3568	1.71	0
2	4124	1.81	0
2	4680	1.91	0
2	5244	2.01	0
2	5800	2.11	0
2	6356	2.21	0
2	6912	2.31	0
2	7468	2.41	0
2	8024	2.51	0
2	8580	2.61	0
2	9136	2.71	0
2	9692	2.81	0
2	10248	2.91	0
2	10812	3.01	0
2	11368	3.11	0
2	11924	3.21	0
2	12480	3.31	0
2	13036	3.41	0
2	13592	3.51	0
2	14148	3.61	0
2	14704	3.71	0
2	15260	3.81	0
2	15816	3.91	0
2	16380	4.01	0
2	16936	4.11	0
2	17492	4.21	0
2	18048	4.31	0
2	18604	4.41	0
2	19160	4.51	0
2	19716	4.61	0
2	20272	4.71	0
2	20828	4.81	0
2	21384	4.91	0
2	21949	5.01	0
2	22506	5.11	0
2	23063	5.21	0
2	23620	5.31	0
2	24177	5.41	0
2	24734	5.51	0
2	25291	5.61	0
2	25848	5.71	0
2	26405	5.81	0
2	26962	5.91	0
2	27527	6.01	0
2	28084	6.11	0
2	28641	6.21	0
2	29198	6.31	0
2	29755	6.41	0
2	30312	6.51	0
2	30869	6.61	0
2	31426	6.71	0
2	31983	6.81	0
2	32540	6.91	0
2	33105	7.01	0
2	33662	7.11	0
2	34219	7.21	0
2	34776	7.31	0
2	35333	7.41	0
2	35890	7.51	0
2	36447	7.61	0
2	37004	7.71	0
2	37561	7.81	0
2	38118	7.91	0
2	38683	8.01	0
2	39240	8.11	0
2	39797	8.21	0
2	40354	8.31	0
2	40911	8.41	0
2	41468	8.51	0
2	42025	8.61	0
2	42582	8.71	0
2	43139	8.81	0
2	43696	8.91	0
2	44261	9.01	0
2	44818	9.11	0
2	45375	9.21	0
2	45932	9.31	0
2	46489	9.41	0
2	47046	9.51	0
2	47603	9.61	0
2	48160	9.71	0
2	48717	9.81	0
2	49274	9.91	0
2	49839	10.01	0
2	50396	10.11	0
2	50953	10.21	0
2	51510	10.31	0
2	52067	10.41	0
2	52624	10.51	0
2	53181	10.61	0
2	53738	10.71	0
2	54295	10.81	0
2	54852	10.91	0
2	55417	11.01	0
2	55974	11.11	0
2	56531	11.21	0
2	57088	11.31	0
2	57645	11.41	0
2	58202	11.51	0
2	58759	11.61	0
2	59316	11.71	0
2	59873	11.81	0
2	60430	11.91	0
2	60995	12.01	0
2	61552	12.11	0
2	62109	12.21	0
2	62666	12.31	0
2	63223	12.41	0
2	63780	12.51	0
2	64337	12.61	0
2	64894	12.71	0
2	65451	12.81	0
2	66008	12.91	0
2	66573	13.01	0
2	67130	13.11	0
2	67687	13.21	0
2	68244	13.31	0
2	68801	13.41	0
2	69358	13.51	0
2	69915	13.61	0
2	70472	13.71	0
2	71029	13.81	0
2	71586	13.91	0
2	72151	14.01	0
2	72708	14.11	0
2	73265	14.21	0
2	73822	14.31	0
2	74379	14.41	0
2	74936	14.51	0
2	75493	14.61	0
2	76050	14.71	0
2	76607	14.81	0
2	77164	14.91	0
2	77729	15.01	0
2	78286	15.11	0
2	78843	15.21	0
2	79400	15.31	0
2	79957	15.41	0
2	80514	15.51	0
2	81071	15.61	0
2	81628	15.71	0
2	82185	15.81	0
2	82742	15.91	0
2	83307	16.01	0
2	83864	16.11	0
2	84421	16.21	0
2	84978	16.31	0
2	85535	16.41	0
2	86092	16.51	0
2	86649	16.61	0
2	87206	16.71	0
2	87763	16.81	0
2	88320	16.91	0
2	88885	17.01	0
2	89442	17.11	0
2	89999	17.21	0
2	90556	17.31	0
2	91113	17.41	0
2	91670	17.51	0
2	92227	17.61	0
2	92784	17.71	0
2	93341	17.81	0
2	93898	17.91	0
2	94463	18.01	0
2	95020	18.11	0
2	95577	18.21	0
2	96134	18.31	0
2	96691	18.41	0
2	97248	18.51	0
2	97805	18.61	0
2	98362	18.71	0
2	98919	18.81	0
2	99476	18.91	0
2	100041	19.01	0
2	100598	19.11	0
2	101155	19.21	0
2	101712	19.31	0
2	102269	19.41	0
2	102826	19.51	0
2	103383	19.61	0
2	103940	19.71	0
2	104497	19.81	0
2	105054	19.91	0
2	105619	20.01	0
2	106176	20.11	0
2	106733	20.21	0
2	107290	20.31	0
2	107847	20.41	0
2	108404	20.51	0
2	108961	20.61	0
2	109518	20.71	0
2	110075	20.81	0
2	110632	20.91	0
2	111197	21.01	0
2	111754	21.11	0
2	112311	21.21	0
2	112868	21.31	0
2	113425	21.41	0
2	113982	21.51	0
2	114539	21.61	0
2	115096	21.71	0
2	115653	21.81	0
2	116210	21.91	0
2	116775	22.01	0
2	117332	22.11	0
2	117889	22.21	0
2	118446	22.31	0
2	119003	22.41	0
2	119560	22.51	0
2	120117	22.61	0
2	120674	22.71	0
2	121231	22.81	0
2	121788	22.91	0
2	122353	23.01	0
2	122910	23.11	0
2	123467	23.21	0
2	124024	23.31	0
2	124581	23.41	0
2	125138	23.51	0
2	125695	23.61	0
2	126252	23.71	0
2	126809	23.81	0
2	127366	23.91	0
2	127931	24.01	0
2	128488	24.11	0
2	129045	24.21	0
2	129602	24.31	0
2	130159	24.41	0
2	130716	24.51	0
2	131273	24.61	0
2	131830	24.71	0
2	132387	24.81	0
2	132944	24.91	0
2	133509	25.01	0
2	134066	25.11	0
2	134623	25.21	0
2	135180	25.31	0
2	135737	25.41	0
2	136294	25.51	0
2	136851	25.61	0
2	137408	25.71	0
2	137965	25.81	0
2	138522	25.91	0
2	139087	26.01	0
2	139644	26.11	0
2	140201	26.21	0
2	140758	26.31	0
2	141315	26.41	0
2	141872	26.51	0
2	142429	26.61	0
2	142986	26.71	0
2	143543	26.81	0
2	144100	26.91	0
2	144665	27.01	0
2	145222	27.11	0
2	145779	27.21	0
2	146336	27.31	0
2	146893	27.41	0
2	147450	27.51	0
2	148007	27.61	0
2	148564	27.71	0
2	149121	27.81	0
2	149678	27.91	0
2	150243	28.01	0
2	150800	28.11	0
2	151357	28.21	0
2	151914	28.31	0
2	152471	28.41	0
2	153028	28.51	0
2	153585	28.61	0
2	154142	28.71	0
2	154699	28.81	0
2	155256	28.91	0
2	155821	29.01	0
2	156378	29.11	0
2	156935	29.21	0
2	157492	29.31	0
2	158049	29.41	0
2	158606	29.51	0
2	159163	29.61	0
2	159720	29.71	0
2	160277	29.81	0
2	160834	29.91	0
2	161399	30.01	0
2	161956	30.11	0
2	162513	30.21	0
2	163070	30.31	0
2	163627	30.41	0
2	164184	30.51	0
2	164741	30.61	0
2	165298	30.71	0
2	165855	30.81	0
2	166412	30.91	0
2	166977	31.01	0
2	167534	31.11	0
2	168091	31.21	0
2	168648	31.31	0
2	169205	31.41	0
2	169762	31.51	0
2	170319	31.61	0
2	170876	31.71	0
2	171433	31.81	0
2	171990	31.91	0
2	172555	32.01	0
2	173112	32.11	0
2	173669	32.21	0
2	174226	32.31	0
2	174783	32.41	0
2	175340	32.51	0
10	5102	2	0
10	10670	3	0
10	16238	4	0
10	21807	5	0
10	27384	6	0
10	32962	7	0
10	38540	8	0
10	44118	9	0
10	49696	10	0
10	55274	11	0
10	60852	12	0
10	66430	13	0
10	72008	14	0
10	77586	15	0
10	83164	16	0
10	88742	17	0
10	94320	18	0
10	99898	19	0
10	105476	20	0
10	111054	21	0
10	116632	22	0
10	122210	23	0
10	127788	24	0
10	133366	25	0
10	138944	26	0
10	144522	27	0
10	150100	28	0
10	155678	29	0
10	161256	30	0
10	166834	31	0
10	172412	32	0
9	5102	2	0.022969
9	10670	3	0.02625
9	16238	4	0.02625
9	21807	5	0.02625
9	27384	6	0.02625
9	32962	7	0.02625
9	38540	8	0.02625
9	44118	9	0.02625
9	49696	10	0.02625
9	55274	11	0.02625
9	60852	12	0.02625
9	66430	13	0.02625
9	72008	14	0.02625
9	77586	15	0.02625
9	83164	16	0.02625
9	88742	17	0.02625
9	94320	18	0.02625
9	99898	19	0.02625
9	105476	20	0.02625
9	111054	21	0.02625
9	116632	22	0.02625
9	122210	23	0.02625
9	127788	24	0.02625
9	133366	25	0.02625
9	138944	26	0.02625
9	144522	27	0.02625
9	150100	28	0.02625
9	155678	29	0.02625
9	161256	30	0.02625
9	166834	31	0.02625
9	172412	32	0.02625
8	5102	2	0
8	10670	3	0
8	16238	4	0
8	21807	5	0
8	27384	6	0
8	32962	7	0
8	38540	8	0
8	44118	9	0
8	49696	10	0
8	55274	11	0
8	60852	12	0
8	66430	13	0
8	72008	14	0
8	77586	15	0
8	83164	16	0
8	88742	17	0
8	94320	18	0
8	99898	19	0
8	105476	20	0
8	111054	21	0
8	116632	22	0
8	122210	23	0
8	127788	24	0
8	133366	25	0
8	138944	26	0
8	144522	27	0
8	150100	28	0
8	155678	29	0
8	161256	30	0
8	166834	31	0
8	172412	32	0
29	233	1.11	0
29	789	1.21	-8.4056177925618e-07
29	1345	1.31	-8.2075472263909e-07
29	1901	1.41	-7.8994004709898e-07
29	2457	1.51	-7.5067790348271e-07
29	3013	1.61	-7.0521372634857e-07
29	3569	1.71	-6.5549546022226e-07
29	4125	1.81	-6.0319290810185e-07
29	4681	1.91	-5.4971833648665e-07
29	5245	2.01	-4.9624810912974e-07
29	5801	2.11	-4.43744491605e-07
29	6357	2.21	-3.9297722295828e-07
29	6913	2.31	-3.4454473833989e-07
29	7469	2.41	-2.9889449194798e-07
29	8025	2.51	-2.5634237317718e-07
29	8581	2.61	-2.1709087775434e-07
29	9137	2.71	-1.8124609169945e-07
29	9693	2.81	-1.4883321853176e-07
29	10249	2.91	-1.1981084526269e-07
29	10813	3.01	-9.4083806772005e-08
29	11369	3.11	-7.1514581208021e-08
29	11925	3.21	-5.1933478317778e-08
29	12481	3.31	-3.5147632928556e-08
29	13037	3.41	-2.0948519647845e-08
29	13593	3.51	-9.1186703343737e-09
29	14149	3.61	5.6278764759554e-10
29	14705	3.71	8.3154853314227e-09
29	15261	3.81	1.4354139636907e-08
29	15817	3.91	1.8885534842639e-08
29	16381	4.01	2.2106217727469e-08
29	16937	4.11	2.4200766972626e-08
29	17493	4.21	2.5340652882733e-08
29	18049	4.31	2.5683523432463e-08
29	18605	4.41	2.5372835636972e-08
29	19161	4.51	2.4537787766121e-08
29	19717	4.61	2.3293600150964e-08
29	20273	4.71	2.1741932414443e-08
29	20829	4.81	1.9971505764715e-08
29	21385	4.91	1.8058871091853e-08
29	21950	5.01	1.606915034813e-08
29	22507	5.11	1.4057008286272e-08
29	23064	5.21	0.34744325709807
29	23621	5.31	0.68340768140881
29	24178	5.41	0.99756363375378
29	24735	5.51	1.2810264127903
29	25292	5.61	1.5050667296724
29	25849	5.71	1.5064779078551
29	26406	5.81	1.5076614134556
29	26963	5.91	1.5086522182492
29	27528	6.01	1.5094791601182
29	28085	6.11	1.5101667013854
29	28642	6.21	1.5107356051534
29	29199	6.31	1.5112035051881
29	29756	6.41	1.5115853864003
29	30313	6.51	1.5118939902031
29	30870	6.61	1.4356986080318
29	31427	6.71	1.1704627172778
29	31984	6.81	0.86926982592714
29	32541	6.91	0.53948347680657
29	33106	7.01	0.18871517131436
29	33663	7.11	-0.17530246531544
29	34220	7.21	-0.54483943819256
29	34777	7.31	-0.91228797004628
29	35334	7.41	-1.2702768193399
29	35891	7.51	-1.5000361762883
29	36448	7.61	-1.502162792351
29	37005	7.71	-1.5039664696782
29	37562	7.81	-1.5054953302102
29	38119	7.91	-1.5067901541098
29	38684	8.01	-1.5078855230755
29	39241	8.11	-1.5088107822863
29	39798	8.21	-1.5095908502547
29	40355	8.31	-1.5102469010665
29	40912	8.41	-1.510796939476
29	41469	8.51	-1.5112562859866
29	42026	8.61	-1.5116379862629
29	42583	8.71	-1.5119531568913
29	43140	8.81	-1.5122112775664
29	43697	8.91	-1.5124204381572
29	44262	9.01	-1.5125875477457
29	44819	9.11	-1.5127185116016
29	45376	9.21	-1.5128183810988
29	45933	9.31	-1.5128914807878
29	46490	9.41	-1.5129415161691
29	47047	9.51	-1.51297165279
29	47604	9.61	-1.1182807059675
29	48161	9.71	-0.68321666671481
29	48718	9.81	-0.24003156631447
29	49275	9.91	0.20071445100944
29	49840	10.01	0.62925232754688
29	50397	10.11	1.036673591149
29	50954	10.21	1.4149894782196
29	51511	10.31	1.500580977397
29	52068	10.41	1.5027286525437
29	52625	10.51	1.504544440596
29	53182	10.61	1.5060779543939
29	53739	10.71	1.5073712480947
29	54296	10.81	1.5084599911581
29	54853	10.91	1.509374456637
29	55418	11.01	1.5101403536683
29	55975	11.11	1.510779529162
29	56532	11.21	1.5113105596097
29	57089	11.31	1.5117492505276
29	57646	11.41	1.5121090582114
29	58203	11.51	1.5124014461043
29	58760	11.61	1.5126361861007
29	59317	11.71	1.512821613446
29	59874	11.81	1.51296484251
29	60431	11.91	1.4660292658332
29	60996	12.01	1.0838435611823
29	61553	12.11	0.67803824351071
29	62110	12.21	0.25895336612807
29	62667	12.31	-0.16352273702062
29	63224	12.41	-0.58004950237105
29	63781	12.51	-0.98192151465544
29	64338	12.61	-1.3611469162581
29	64895	12.71	-1.4997178895961
29	65452	12.81	-1.5018806712694
29	66009	12.91	-1.5037131130692
29	66574	13.01	-1.505264526572
29	67131	13.11	-1.5065767021195
29	67688	13.21	-1.5076850790552
29	68245	13.31	-1.508619730508
29	68802	13.41	-1.5094061926321
29	69359	13.51	-1.5100661633088
29	69916	13.61	-1.5106180912278
29	70473	13.71	-1.5110776728559
29	71030	13.81	-1.5114582719578
29	71587	13.91	-1.5117712739567
29	72152	14.01	-1.5120263854405
29	72709	14.11	-1.5122318874576
29	73266	14.21	-1.5123948498643
29	73823	14.31	-1.5125213128199
29	74380	14.41	-1.5126164405569
29	74937	14.51	-1.2410024417208
29	75494	14.61	-0.83107587373355
29	76051	14.71	-0.40586348435805
29	76608	14.81	0.024276337952936
29	77165	14.91	0.4495898297146
29	77730	15.01	0.86101243241538
29	78287	15.11	1.2502439363804
29	78844	15.21	1.499443248471
29	79401	15.31	1.5017216652732
29	79958	15.41	1.5036504776076
29	80515	15.51	1.5052819853248
29	81072	15.61	1.5066605027457
29	81629	15.71	1.5078236020904
29	82186	15.81	1.5088031597194
29	82743	15.91	1.5096262370087
29	83308	16.01	1.5103158224628
29	83865	16.11	1.510891457314
29	84422	16.21	1.5113697632305
29	84979	16.31	1.5117648877273
29	85536	16.41	1.5120888803467
29	86093	16.51	1.512352010564
29	86650	16.61	1.51256303661
29	87207	16.71	1.5127294329264
29	87764	16.81	1.5128575827351
29	88321	16.91	1.5129529410481
29	88886	17.01	1.1858811242023
29	89443	17.11	0.77714739772478
29	90000	17.21	0.35388343882399
29	90557	17.31	-0.073723036308331
29	91114	17.41	-0.49606876898394
29	91671	17.51	-0.90422046144348
29	92228	17.61	-1.2899910234328
29	92785	17.71	-1.499433802029
29	93342	17.81	-1.5016747479397
29	93899	17.91	-1.503572456455
29	94464	18.01	-1.5051782376302
29	95021	18.11	-1.506535570492
29	95578	18.21	-1.5076813219708
29	96135	18.31	-1.5086467725958
29	96692	18.41	-1.5094584801282
29	97249	18.51	-1.5101390071932
29	97806	18.61	-1.510707534713
29	98363	18.71	-1.5111803793846
29	98920	18.81	-1.5115714304839
29	99477	18.91	-1.5118925188011
29	100042	19.01	-1.5121537284428
29	100599	19.11	-1.5123636605108
29	101156	19.21	-1.5125296562186
29	101713	19.31	-1.5126579857995
29	102270	19.41	-1.5127540085456
29	102827	19.51	-1.2061940468961
29	103384	19.61	-0.79702383283145
29	103941	19.71	-0.3730431310675
29	104498	19.81	0.055497127942838
29	105055	19.91	0.47893793510325
29	105620	20.01	0.88829736503541
29	106177	20.11	1.2753464151296
29	106734	20.21	1.4995038243579
29	107291	20.31	1.5017579673152
29	107848	20.41	1.5036665552544
29	108405	20.51	1.5052812573862
29	108962	20.61	1.5066458558215
29	109519	20.71	1.5077974734106
29	110076	20.81	1.5087676069064
29	110633	20.91	1.5095829968611
29	111198	21.01	1.5102663605173
29	111755	21.11	1.5108370096565
29	112312	21.21	1.5113113717887
29	112869	21.31	1.5117034300783
29	113426	21.41	1.5120250949053
29	113983	21.51	1.5122865178796
29	114540	21.61	1.5124963573827
29	115097	21.71	1.5126620032549
29	115654	21.81	1.512789767029
29	116211	21.91	1.5128850430878
29	116776	22.01	1.1987242147235
29	117333	22.11	0.78971462167036
29	117890	22.21	0.36599851396055
29	118447	22.31	-0.062196612723584
29	119004	22.41	-0.48523241906203
29	119561	22.51	-0.89414501040659
29	120118	22.61	-1.2807209264921
29	120675	22.71	-1.4994228957197
29	121232	22.81	-1.501672599684
29	121789	22.91	-1.5035776300795
29	122354	23.01	-1.5051895194586
29	122911	23.11	-1.5065519345205
29	123468	23.21	-1.5077019005872
29	124025	23.31	-1.5086708319445
29	124582	23.41	-1.5094853993705
29	125139	23.51	-1.5101682610376
29	125696	23.61	-1.510738678689
29	126253	23.71	-1.5112130374235
29	126810	23.81	-1.5116052844371
29	127367	23.91	-1.5119272995897
29	127932	24.01	-1.5121892085791
29	128489	24.11	-1.5123996477763
29	129046	24.21	-1.5125659883153
29	129603	24.31	-1.5126945258233
29	130160	24.41	-1.5127906411526
29	130717	24.51	-1.2014508622192
29	131274	24.61	-0.79238224315357
29	131831	24.71	-0.36856852123538
29	132388	24.81	0.05975411171944
29	132945	24.91	0.48293964625013
29	133510	25.01	0.89201749683396
29	134067	25.11	1.2787684356987
29	134624	25.21	1.4994943076743
29	135181	25.31	1.5017451257474
29	135738	25.41	1.5036509474148
29	136295	25.51	1.5052633560623
29	136852	25.61	1.5066260613226
29	137409	25.71	1.5077761248013
29	137966	25.81	1.5087449914666
29	138523	25.91	1.5095593580578
29	139088	26.01	1.5102419047266
29	139645	26.11	1.5108119118351
29	140202	26.21	1.5112857802626
29	140759	26.31	1.5116774705879
29	141316	26.41	1.5119988740249
29	141873	26.51	1.5122601259102
29	142430	26.61	1.5124698707996
29	142987	26.71	1.5126354867817
29	143544	26.81	1.512763275394
29	144101	26.91	1.5128586225141
29	144666	27.01	1.2004714955433
29	145223	27.11	0.79142433403357
29	145780	27.21	0.36764639488467
29	146337	27.31	-0.060629357254121
29	146894	27.41	-0.48375975934352
29	147451	27.51	-0.89277670887697
29	148008	27.61	-1.2794631184371
29	148565	27.71	-1.4994383323445
29	149122	27.81	-1.5016891490072
29	149679	27.91	-1.5035950841853
29	150244	28.01	-1.5052077024245
29	150801	28.11	-1.5065706974502
29	151358	28.21	-1.5077211174303
29	151915	28.31	-1.5086903959748
29	152472	28.41	-1.5095052202185
29	153029	28.51	-1.5101882621871
29	153586	28.61	-1.510758795365
29	154143	28.71	-1.511233214808
29	154700	28.81	-1.5116254761621
29	155257	28.91	-1.5119474664623
29	155822	29.01	-1.5122093175033
29	156379	29.11	-1.5124196708395
29	156936	29.21	-1.5125859020152
29	157493	29.31	-1.5127143104116
29	158050	29.41	-1.5128102800791
29	158607	29.51	-1.2008121603158
29	159164	29.61	-0.79175736461686
29	159721	29.71	-0.36796647085811
29	160278	29.81	0.060326358660165
29	160835	29.91	0.483476904543
29	161400	30.01	0.89251614278875
29	161957	30.11	1.2792261916474
[...]
123	79111	15.254853121782	0.09998583965
123	79668	15.354864961413	0.100011839631
123	80225	15.454850801048	0.099985839635
123	80782	15.554927640704	0.100076839656
123	81339	15.654835480402	0.099907839698
123	81896	15.754860320153	0.100024839751
123	82453	15.85489815997	0.100037839817
123	83010	15.954857999865	0.099959839895
123	83575	16.054882839845	0.10002483998
123	84132	16.15486867992	0.099985840075
123	84689	16.254919520097	0.100050840177
123	85246	16.354879360382	0.099959840285
123	85803	16.454930200782	0.1000508404
123	86360	16.554903041301	0.099972840519
123	86917	16.654927881946	0.100024840645
123	87474	16.754913722722	0.099985840776
123	88031	16.854860563635	0.099946840913
123	88588	16.954898404687	0.100037841052
123	89153	17.054845245883	0.099946841196
123	89710	17.154896087219	0.100050841336
123	90267	17.254868928688	0.099972841469
123	90824	17.354880770276	0.100011841588
123	91381	17.454905611967	0.100024841691
123	91938	17.554852453736	0.099946841769
123	92495	17.654877295557	0.100024841821
123	93052	17.754863137404	0.099985841847
123	93609	17.854900979251	0.100037841847
123	94166	17.954834821078	0.099933841827
123	94731	18.054833662863	0.099998841785
123	95288	18.15488450459	0.100050841727
123	95845	18.254844346246	0.099959841656
123	96402	18.354921187819	0.100076841573
123	96959	18.4548940293	0.099972841481
123	97516	18.554853870678	0.099959841378
123	98073	18.654865711946	0.100011841268
123	98630	18.754851553098	0.099985841152
123	99187	18.854915394126	0.100063841028
123	99744	18.954849235025	0.099933840899
123	100309	19.05490007579	0.100050840765
123	100866	19.154846916415	0.099946840625
123	101423	19.254845756894	0.099998840479
123	101980	19.354831597226	0.099985840332
123	102537	19.454869437401	0.100037840175
123	103094	19.55482927742	0.099959840019
123	103651	19.654893117284	0.100063839864
123	104208	19.754852957003	0.099959839719
123	104765	19.854877796589	0.100024839586
123	105322	19.954915636061	0.100037839472
123	105887	20.054862475442	0.099946839381
123	106444	20.154887314755	0.100024839313
123	107001	20.25486015403	0.099972839275
123	107558	20.354832993293	0.099972839263
123	108115	20.454870832566	0.100037839273
123	108672	20.554843671869	0.099972839303
123	109229	20.654881511219	0.10003783935
123	109786	20.754828350628	0.099946839409
123	110343	20.854866190108	0.10003783948
123	110900	20.954865029674	0.099998839566
123	111465	21.054863869329	0.099998839655
123	112022	21.154901709086	0.100037839757
123	112579	21.254874548949	0.099972839863
123	113136	21.354860388927	0.099985839978
123	113693	21.454846229024	0.099985840097
123	114250	21.554884069248	0.100037840224
123	114807	21.654908909602	0.100024840354
123	115364	21.754881750092	0.09997284049
123	115921	21.854841590724	0.099959840632
123	116478	21.954853431503	0.100011840779
123	117043	22.054891272429	0.100037840926
123	117600	22.154838113501	0.099946841072
123	118157	22.254862954711	0.10002484121
123	118714	22.354861796046	0.099998841335
123	119271	22.454847637488	0.099985841442
123	119828	22.554846479015	0.099998841527
123	120385	22.654923320603	0.100076841588
123	120942	22.754844162221	0.099920841618
123	121499	22.854856003844	0.100011841623
123	122056	22.954880845452	0.100024841608
123	122621	23.054918687025	0.100037841573
123	123178	23.154891528544	0.099972841519
123	123735	23.254903369995	0.100011841451
123	124292	23.35483721137	0.099933841375
123	124849	23.454875052656	0.100037841286
123	125406	23.554886893846	0.10001184119
123	125963	23.65484673493	0.099959841084
123	126520	23.754884575901	0.100037840971
123	127077	23.854844416755	0.099959840854
123	127634	23.954856257483	0.100011840728
123	128199	24.054842098083	0.0999858406
123	128756	24.154918938545	0.100076840462
123	129313	24.254839778867	0.099920840322
123	129870	24.354851619045	0.100011840178
123	130427	24.454837459072	0.099985840027
123	130984	24.554836298947	0.099998839875
123	131541	24.654861138672	0.100024839725
123	132098	24.754924978257	0.100063839585
123	132655	24.854897817712	0.099972839455
123	133212	24.954844657056	0.099946839344
123	133777	25.054843496311	0.099998839255
123	134334	25.154894335505	0.100050839194
123	134891	25.254880174664	0.099985839159
123	135448	25.354879013813	0.099998839149
123	136005	25.454916852978	0.100037839165
123	136562	25.554876692177	0.099959839199
123	137119	25.654888531427	0.10001183925
123	137676	25.754861370739	0.099972839312
123	138233	25.854925210129	0.10006383939
123	138790	25.954872049603	0.099946839474
123	139355	26.054922889174	0.100050839571
123	139912	26.154895728846	0.099972839672
123	140469	26.254920568628	0.100024839782
123	141026	26.354854408529	0.099933839901
123	141583	26.454840248551	0.099985840022
123	142140	26.554839088703	0.099998840152
123	142697	26.654850928988	0.100011840285
123	143254	26.754901769414	0.100050840426
123	143811	26.854874609984	0.09997284057
123	144368	26.954886450703	0.100011840719
123	144933	27.054846291571	0.099959840868
123	145490	27.154871132589	0.100024841018
123	146047	27.25488297375	0.100011841161
123	146604	27.354868815039	0.099985841289
123	147161	27.454828656435	0.099959841396
123	147718	27.55491849792	0.100089841485
123	148275	27.654852339468	0.099933841548
123	148832	27.754916181049	0.100063841581
123	149389	27.854915022638	0.099998841589
123	149946	27.954926864213	0.100011841575
123	150511	28.054860705755	0.099933841542
123	151068	28.154846547246	0.099985841491
123	151625	28.254923388673	0.100076841427
123	152182	28.354883230024	0.099959841351
123	152739	28.454869071288	0.099985841264
123	153296	28.554841912458	0.09997284117
123	153853	28.654905753525	0.100063841067
123	154410	28.754904594483	0.099998840958
123	154967	28.854916435325	0.100011840842
123	155524	28.954915276043	0.099998840718
123	156089	29.054901116633	0.09998584059
123	156646	29.154834957089	0.099933840456
123	157203	29.254924797407	0.100089840318
123	157760	29.354871637583	0.099946840176
123	158317	29.454896477609	0.100024840026
123	158874	29.554882317484	0.099985839875
123	159431	29.65488115721	0.099998839726
123	159988	29.754892996798	0.100011839588
123	160545	29.854878836258	0.09998583946
123	161102	29.95485167561	0.099972839352
123	161667	30.054889514875	0.100037839265
123	162224	30.154914354084	0.100024839209
123	162781	30.254835193305	0.099920839221
123	163338	30.354834032649	0.099998839344
123	163895	30.454910872268	0.100076839619
123	164452	30.554883712344	0.099972840076
123	165009	30.654895553087	0.100011840743
123	165566	30.754881394732	0.099985841645
123	166123	30.854841237528	0.099959842796
123	166680	30.954840081739	0.099998844211
123	167245	31.05490392764	0.100063845901
123	167802	31.154889775514	0.099985847874
123	168359	31.254836625655	0.099946850141
123	168916	31.354874478356	0.100037852701
123	169473	31.454860333921	0.099985855565
123	170030	31.55488519265	0.100024858729
123	170587	31.654884054846	0.099998862196
123	171144	31.754843920815	0.099959865969
123	171701	31.854842790862	0.099998870047
123	172258	31.954867665292	0.10002487443
123	172823	32.054879544404	0.100011879112
123	173380	32.154917428493	0.100037884089
123	173937	32.254890317848	0.099972889355
123	174494	32.354863212744	0.099972894896
123	175051	32.454914113449	0.100050900705
124	1172	1.26574753106	0.099998840582
124	1728	1.365746371642	0.099998840582
124	2284	1.465758212224	0.100011840582
124	2840	1.565757052806	0.099998840582
124	3396	1.665755893388	0.099998840582
124	3952	1.76575473397	0.099998840582
124	4508	1.865753574552	0.099998840582
124	5064	1.965752415134	0.099998840582
124	5628	2.065751255716	0.099998840582
124	6184	2.165750096298	0.099998840582
124	6740	2.26574893688	0.099998840582
124	7296	2.365747777462	0.099998840582
124	7852	2.465746618044	0.099998840582
124	8408	2.565758458626	0.100011840582
124	8964	2.665757299208	0.099998840582
124	9520	2.76575613979	0.099998840582
124	10076	2.865754980372	0.099998840582
124	10632	2.965753820954	0.099998840582
124	11196	3.065752661536	0.099998840582
124	11752	3.165751502118	0.099998840582
124	12308	3.2657503427	0.099998840582
124	12864	3.365749183282	0.099998840582
124	13420	3.465748023864	0.099998840582
124	13976	3.565746864446	0.099998840582
124	14532	3.665745705028	0.099998840582
124	15088	3.76575754561	0.100011840582
124	15644	3.865756386192	0.099998840582
124	16200	3.965755226774	0.099998840582
124	16764	4.065754067356	0.099998840582
124	17320	4.165752907938	0.099998840582
124	17876	4.26575174852	0.099998840582
124	18432	4.365750589102	0.099998840582
124	18988	4.465749429684	0.099998840582
124	19544	4.565748270266	0.099998840582
124	20100	4.665747110848	0.099998840582
124	20656	4.76574595143	0.099998840582
124	21212	4.865757792012	0.100011840582
124	21768	4.965756632594	0.099998840582
124	22333	5.065755473176	0.099998840582
124	22890	5.165754313759	0.099998840583
124	23447	5.265753154344	0.099998840585
124	23998	5.365751994939	0.099998840595
124	24555	5.465750835555	0.099998840616
124	25112	5.565749676208	0.099998840653
124	25669	5.665748516913	0.099998840705
124	26226	5.765747357687	0.099998840774
124	26783	5.865746198549	0.099998840862
124	27340	5.965758039512	0.100011840963
124	27905	6.065756880588	0.099998841076
124	28462	6.165755721787	0.099998841199
124	29019	6.265754563119	0.099998841332
124	29576	6.365753404592	0.099998841473
124	30133	6.465752246212	0.09999884162
124	30690	6.565751087988	0.099998841776
124	31247	6.665749929922	0.099998841934
124	31804	6.765748772016	0.099998842094
124	32361	6.865747614273	0.099998842257
124	32918	6.965746456685	0.099998842412
124	33483	7.065758299242	0.100011842557
124	34040	7.165757141929	0.099998842687
124	34597	7.265755984729	0.0999988428
124	35154	7.365754827619	0.09999884289
124	35711	7.465753670577	0.099998842958
124	36268	7.565752513575	0.099998842998
124	36825	7.665751356592	0.099998843017
124	37382	7.765750199602	0.09999884301
124	37939	7.865749042589	0.099998842987
124	38496	7.965747885535	0.099998842946
124	39061	8.065746728426	0.099998842891
124	39618	8.165758571251	0.100011842825
124	40175	8.265757414001	0.09999884275
124	40732	8.365756256667	0.099998842666
124	41289	8.465755099239	0.099998842572
124	41846	8.56575394171	0.099998842471
124	42403	8.665752784074	0.099998842364
124	42960	8.765751626324	0.09999884225
124	43517	8.865750468454	0.09999884213
124	44074	8.965749310459	0.099998842005
124	44639	9.065748152335	0.099998841876
124	45196	9.165746994074	0.099998841739
124	45753	9.265745835673	0.099998841599
124	46310	9.365757677126	0.100011841453
124	46873	9.465756518429	0.099998841303
124	47430	9.565755359575	0.099998841146
124	47987	9.665754200567	0.099998840992
124	48544	9.765753041405	0.099998840838
124	49101	9.865751882098	0.099998840693
124	49658	9.965750722662	0.099998840564
124	50223	10.065749563117	0.099998840455
124	50780	10.165748403487	0.09999884037
124	51337	10.265747243797	0.09999884031
124	51894	10.365746084077	0.09999884028
124	52451	10.46575792435	0.100011840273
124	53008	10.565756764635	0.099998840285
124	53565	10.665755604953	0.099998840318
124	54122	10.765754445322	0.099998840369
124	54679	10.865753285752	0.09999884043
124	55236	10.965752126256	0.099998840504
124	55801	11.065750966843	0.099998840587
124	56358	11.165749807519	0.099998840676
124	56915	11.265748648296	0.099998840777
124	57472	11.365747489177	0.099998840881
124	58029	11.465746330173	0.099998840996
124	58586	11.565758171285	0.100011841112
124	59143	11.665757012522	0.099998841237
124	59700	11.765755853887	0.099998841365
124	60251	11.865754695386	0.099998841499
124	60808	11.965753537022	0.099998841636
124	61373	12.065752378797	0.099998841775
124	61930	12.165751220709	0.099998841912
124	62487	12.265750062747	0.099998842038
124	63044	12.365748904898	0.099998842151
124	63601	12.465747747141	0.099998842243
124	64158	12.565746589456	0.099998842315
124	64715	12.665758431815	0.100011842359
124	65272	12.765757274192	0.099998842377
124	65829	12.865756116558	0.099998842366
124	66386	12.965754958896	0.099998842338
124	66951	13.065753801185	0.099998842289
124	67508	13.165752643411	0.099998842226
124	68065	13.26575148556	0.099998842149
124	68622	13.365750327621	0.099998842061
124	69179	13.465749169582	0.099998841961
124	69736	13.565748011437	0.099998841855
124	70293	13.665746853177	0.09999884174
124	70850	13.765745694794	0.099998841617
124	71407	13.865757536284	0.10001184149
124	71970	13.965756377641	0.099998841357
124	72535	14.065755218857	0.099998841216
124	73092	14.165754059929	0.099998841072
124	73649	14.26575290085	0.099998840921
124	74206	14.365751741617	0.099998840767
124	74763	14.465750582227	0.09999884061
124	75320	14.565749422673	0.099998840446
124	75877	14.665748262961	0.099998840288
124	76434	14.765747103097	0.099998840136
124	76991	14.865745943094	0.099998839997
124	77548	14.965757782967	0.100011839873
124	78113	15.065756622742	0.099998839775
124	78670	15.165755462442	0.0999988397
124	79227	15.265754302096	0.099998839654
124	79784	15.365753141729	0.099998839633
124	80341	15.465751981366	0.099998839637
124	80898	15.565750821024	0.099998839658
124	81455	15.665749660723	0.099998839699
124	82012	15.765748500474	0.099998839751
124	82569	15.865747340291	0.099998839817
124	83126	15.965746180184	0.099998839893
124	83691	16.065758020164	0.10001183998
124	84248	16.165756860237	0.099998840073
124	84805	16.265755700411	0.099998840174
124	85362	16.365754540693	0.099998840282
124	85919	16.465753381089	0.099998840396
124	86476	16.565752221604	0.099998840515
124	87033	16.665751062246	0.099998840642
124	87590	16.765749903018	0.099998840772
124	88147	16.865748743925	0.099998840907
124	88698	16.965747584972	0.099998841047
124	89263	17.065746426162	0.09999884119
124	89820	17.165758267492	0.10001184133
124	90377	17.265757108954	0.099998841462
124	90934	17.365755950535	0.099998841581
124	91491	17.465754792218	0.099998841683
124	92048	17.565753633982	0.099998841764
124	92605	17.665752475796	0.099998841814
124	93162	17.765751317636	0.09999884184
124	93719	17.865750159477	0.099998841841
124	94276	17.9657490013	0.099998841823
124	94841	18.06574784308	0.09999884178
124	95398	18.165746684803	0.099998841723
124	95955	18.265758526456	0.100011841653
124	96512	18.365757368026	0.09999884157
124	97069	18.465756209505	0.099998841479
124	97626	18.565755050881	0.099998841376
124	98183	18.665753892147	0.099998841266
124	98740	18.765752733298	0.099998841151
124	99297	18.865751574326	0.099998841028
124	99854	18.965750415224	0.099998840898
124	100425	19.06574925599	0.099998840766
124	100982	19.165748096616	0.099998840626
124	101539	19.265746937097	0.099998840481
124	102096	19.365745777429	0.099998840332
124	102653	19.465757617605	0.100011840176
124	103210	19.565756457626	0.099998840021
124	103767	19.665755297493	0.099998839867
124	104324	19.765754137215	0.099998839722
124	104881	19.865752976804	0.099998839589
124	105438	19.96575181628	0.099998839476
124	106003	20.065750655663	0.099998839383
124	106560	20.165749494979	0.099998839316
124	107117	20.265748334258	0.099998839279
124	107674	20.365747173523	0.099998839265
124	108231	20.465746012796	0.099998839273
124	108788	20.565757852101	0.100011839305
124	109345	20.66575669145	0.099998839349
124	109902	20.765755530858	0.099998839408
124	110459	20.865754370339	0.099998839481
124	111016	20.965753209902	0.099998839563
124	111581	21.065752049557	0.099998839655
124	112138	21.165750889311	0.099998839754
124	112695	21.265749729171	0.09999883986
124	113252	21.365748569145	0.099998839974
124	113809	21.465747409239	0.099998840094
124	114366	21.565746249458	0.099998840219
124	114923	21.665758089808	0.10001184035
124	115480	21.765756930293	0.099998840485
124	116031	21.865755770921	0.099998840628
124	116588	21.965754611694	0.099998840773
124	117153	22.065753452615	0.099998840921
124	117710	22.165752293681	0.099998841066
124	118267	22.265751134884	0.099998841203
124	118824	22.365749976213	0.099998841329
124	119381	22.465748817647	0.099998841434
124	119938	22.565747659169	0.099998841522
124	120495	22.665746500749	0.09999884158
124	121052	22.765758342361	0.100011841612
124	121609	22.865757183979	0.099998841618
124	122166	22.965756025583	0.099998841604
124	122731	23.065754867151	0.099998841568
124	123288	23.165753708667	0.099998841516
124	123845	23.265752550115	0.099998841448
124	124402	23.365751391488	0.099998841373
124	124959	23.465750232772	0.099998841284
124	125516	23.56574907396	0.099998841188
124	126073	23.665747915043	0.099998841083
124	126630	23.765746756015	0.099998840972
124	127187	23.865758596868	0.100011840853
124	127744	23.965757437598	0.09999884073
124	128309	24.065756278197	0.099998840599
124	128872	24.165755118661	0.099998840464
124	129429	24.265753958986	0.099998840325
124	129986	24.365752799165	0.099998840179
124	130543	24.465751639194	0.099998840029
124	131100	24.565750479071	0.099998839877
124	131657	24.665749318801	0.09999883973
124	132214	24.765748158389	0.099998839588
124	132771	24.865746997848	0.099998839459
124	133328	24.965745837195	0.099998839347
124	133893	25.065757676455	0.10001183926
124	134450	25.165756515652	0.099998839197
124	135007	25.265755354815	0.099998839163
124	135564	25.365754193967	0.099998839152
124	136121	25.465753033135	0.099998839168
124	136678	25.565751872335	0.0999988392
124	137235	25.665750711586	0.099998839251
124	137792	25.765749550899	0.099998839313
124	138349	25.865748390287	0.099998839388
124	138906	25.965747229762	0.099998839475
124	139471	26.065746069331	0.099998839569
124	140028	26.165757909002	0.100011839671
124	140585	26.265756748783	0.099998839781
124	141142	26.36575558868	0.099998839897
124	141699	26.4657544287	0.09999884002
124	142256	26.565753268848	0.099998840148
124	142813	26.665752109131	0.099998840283
124	143364	26.765750949553	0.099998840422
124	143921	26.865749790119	0.099998840566
124	144478	26.965748630833	0.099998840714
124	145043	27.065747471697	0.099998840864
124	145600	27.165746312709	0.099998841012
124	146157	27.265758153865	0.100011841156
124	146714	27.365756995147	0.099998841282
124	147271	27.465755836539	0.099998841392
124	147828	27.565754678018	0.099998841479
124	148385	27.665753519559	0.099998841541
124	148942	27.765752361136	0.099998841577
124	149499	27.86575120272	0.099998841584
124	150056	27.965750044292	0.099998841572
124	150621	28.065748885829	0.099998841537
124	151178	28.165747727318	0.099998841489
124	151735	28.265746568743	0.099998841425
124	152292	28.365758410093	0.10001184135
124	152849	28.465757251356	0.099998841263
124	153406	28.565756092525	0.099998841169
124	153963	28.665754933593	0.099998841068
124	154520	28.765753774551	0.099998840958
124	155077	28.865752615394	0.099998840843
124	155634	28.965751456113	0.099998840719
124	156199	29.065750296706	0.099998840593
124	156762	29.165749137164	0.099998840458
124	157319	29.265747977484	0.09999884032
124	157876	29.365746817663	0.099998840179
124	158433	29.465745657692	0.099998840029
124	158990	29.565757497571	0.100011839879
124	159547	29.6657563373	0.099998839729
124	160104	29.765755176893	0.099998839593
124	160661	29.865754016358	0.099998839465
124	161218	29.965752855714	0.099998839356
124	161783	30.06575169498	0.099998839266
124	162340	30.16575053415	0.09999883917
124	162891	30.265749373235	0.099998839085
124	163448	30.365748212306	0.099998839071
124	164005	30.46574705148	0.099998839174
124	164562	30.565745890914	0.099998839434
124	165119	30.6657577308	0.100011839886
124	165676	30.765756571356	0.099998840556
124	166233	30.865755412823	0.099998841467
124	166790	30.965754255459	0.099998842636
124	167355	31.065753099539	0.09999884408
124	167912	31.165751945344	0.099998845805
124	168469	31.26575079317	0.099998847826
124	169026	31.365749643317	0.099998850147
124	169583	31.465748496094	0.099998852777
124	170140	31.565747351808	0.099998855714
124	170697	31.665746210772	0.099998858964
124	171254	31.765758073301	0.100011862529
124	171811	31.865756939709	0.099998866408
124	172368	31.965755810313	0.099998870604
124	172933	32.06575468542	0.099998875107
124	173490	32.165753565338	0.099998879918
124	174047	32.265752450368	0.09999888503
124	174604	32.365751340802	0.099998890434
124	175161	32.465750236921	0.099998896119
