file 1684093 1501690871                                         
version 2
run SinusoidalPosInjectionAttack-184-20170802-18:20:41-52368
attr CACCSpacing 5
attr attackAcc -30
attr attackPos 9
attr attackSpeed 150
attr attackStart 30
attr attacker 2
attr beaconInterval 0.1
attr configname SinusoidalPosInjectionAttack
attr controller 1
attr datetime 20170802-18:20:41
attr experiment SinusoidalPosInjectionAttack
attr fakeAcc "(2 == 4)"
attr fakePos "(2 == 2)"
attr fakeSpeed "(2 == 3)"
attr inifile omnetpp_184.ini
attr iterationvars "$attacker=2, $attackSpeed=150, $attackPos=9, $attackAcc=-30, $leaderSpeed=50, $controller=1, $CACCSpacing=5, $sController=\"CACC\", $attackStart=30, $0=5, $1=0, $nCars=8, $platoonSize=8, $nLanes=1, $beaconInterval=0.1, $priority=2, $packetSize=200, $ploegH=0.5, $leaderHeadway=1.2, $fakeSpeed=(2 == 3), $fakeAcc=(2 == 4), $fakePos=(2 == 2)"
attr iterationvarsf attacker=2,attackSpeed=150,attackPos=9,attackAcc=-30,leaderSpeed=50,controller=1,CACCSpacing=5,sController=CACC,attackStart=30,5,0,nCars=8,platoonSize=8,nLanes=1,beaconInterval=0.1,priority=2,packetSize=200,ploegH=0.5,leaderHeadway=1.2,fakeSpeed=(2_==_3),fakeAcc=(2_==_4),fakePos=(2_==_2)-
attr leaderHeadway 1.2
attr leaderSpeed 50
attr measurement "$attacker=2, $attackSpeed=150, $attackPos=9, $attackAcc=-30, $leaderSpeed=50, $controller=1, $CACCSpacing=5, $sController=\"CACC\", $attackStart=30, $0=5, $1=0, $nCars=8, $platoonSize=8, $nLanes=1, $beaconInterval=0.1, $priority=2, $packetSize=200, $ploegH=0.5, $leaderHeadway=1.2, $fakeSpeed=(2 == 3), $fakeAcc=(2 == 4), $fakePos=(2 == 2)"
attr nCars 8
attr nLanes 1
attr network scenario
attr packetSize 200
attr platoonSize 8
attr ploegH 0.5
attr priority 2
attr processid 52368
attr repetition 4
attr replication #4
attr resultdir results
attr runnumber 184
attr sController "\"CACC\""
attr seedset 4
param **.coreDebug false
param **.debug false
param **.headway 0.1s
param **.numberOfCars 8
param **.numberOfCarsPerPlatoon 8
param **.numberOfLanes 1
param **.numericController 1
param **.traffic.nCars 8
param **.traffic.nLanes 1
param **.traffic.platoonInsertDistance 5m
param **.traffic.platoonInsertHeadway 0s
param **.traffic.platoonInsertSpeed 50kmph
param **.traffic.platoonInsertTime "1 s"
param **.traffic.platoonLeaderHeadway 1.2s
param **.traffic.platoonSize 8
param **.traffic.platooningVType "\"vtypeauto\""
param **.traffic_type "\"PlatoonsTrafficManager\""
param *.**.nic.mac1609_4.bitrate 6Mbps
param *.**.nic.mac1609_4.txPower 100mW
param *.**.nic.mac1609_4.useServiceChannel false
param *.**.nic.phy80211p.analogueModels "xmldoc(\"config.xml\")"
param *.**.nic.phy80211p.decider "xmldoc(\"config.xml\")"
param *.**.nic.phy80211p.maxTXPower 100mW
param *.**.nic.phy80211p.sensitivity -94dBm
param *.**.nic.phy80211p.thermalNoise -95dBm
param *.**.nic.phy80211p.usePropagationDelay true
param *.**.nic.phy80211p.useThermalNoise true
param *.annotations.draw false
param *.connectionManager.alpha 2.0
param *.connectionManager.carrierFrequency "5.890e9 Hz"
param *.connectionManager.pMax 100mW
param *.connectionManager.sat -94dBm
param *.connectionManager.sendDirect true
param *.manager.autoShutdown true
param *.manager.commandLine "\"sumo --remote-port $port --seed $seed --configuration-file $configFile\""
param *.manager.configFile "\"./sumocfg/freeway.sumo.cfg\""
param *.manager.host "\"localhost\""
param *.manager.margin 25
param *.manager.moduleDisplayString "\"\""
param *.manager.moduleName "\"node\""
param *.manager.moduleType "\"Car\""
param *.manager.updateInterval 0.01s
param *.node[*].appl.attackStart 30s
param *.node[*].appl.attackerType 2
param *.node[*].appl.simulationDuration "60 s"
param *.node[*].appl_type "\"SimplePlatooningApp\""
param *.node[*].helper.nCars 8
param *.node[*].helper.nLanes 1
param *.node[*].helper.platoonSize 8
param *.node[*].helper_type "\"PositionHelper\""
param *.node[*].mobility.x 0
param *.node[*].mobility.y 0
param *.node[*].mobility.z 1.895
param *.node[*].prot.attackStart 30s
param *.node[*].prot.attackerType 2
param *.node[*].prot.attackingNode 3
param *.node[*].prot.beaconingInterval 0.1s
param *.node[*].prot.fakeAcc "(2 == 4)"
param *.node[*].prot.fakePos "(2 == 2)"
param *.node[*].prot.fakeSpeed "(2 == 3)"
param *.node[*].prot.maliciousAcc "-30 mpss"
param *.node[*].prot.maliciousSpeed 150kmph
param *.node[*].prot.packetSize 200
param *.node[*].prot.priority 2
param *.node[*].prot.shiftX "9 m"
param *.node[*].prot.useControllerAcceleration true
param *.node[*].protocol_type "\"SimplePlatooningBeaconing\""
param *.node[*].scenario.accHeadway 0.1s
param *.node[*].scenario.caccC1 0.5
param *.node[*].scenario.caccOmegaN "0.2 Hz"
param *.node[*].scenario.caccSpacing 5m
param *.node[*].scenario.caccXi 1
param *.node[*].scenario.controller "\"CACC\""
param *.node[*].scenario.engineTau "0.5 s"
param *.node[*].scenario.leaderHeadway 1.2s
param *.node[*].scenario.leaderOscillationFrequency "0.2 Hz"
param *.node[*].scenario.leaderSpeed 50kmph
param *.node[*].scenario.oscillationAmplitude "10 kmph"
param *.node[*].scenario.ploegH 0.5s
param *.node[*].scenario.ploegKd 0.7
param *.node[*].scenario.ploegKp 0.2
param *.node[*].scenario.startOscillating "5 s"
param *.node[*].scenario.useRealisticEngine false
param *.node[*].scenario_type "\"SinusoidalScenario\""
param *.node[*].unicast.packetLossRate 0
param *.obstacles.debug false
param *.playgroundSizeX 65000m
param *.playgroundSizeY 25000m
param *.playgroundSizeZ 50m
param *.world.use2D false
param *.world.useTorus false

vector 0  scenario.node[0].appl  distance  ETV
vector 1  scenario.node[0].appl  relativeSpeed  ETV
vector 2  scenario.node[0].appl  nodeId  ETV
vector 6  scenario.node[0].appl  acceleration  ETV
vector 7  scenario.node[0].appl  controllerAcceleration  ETV
vector 3  scenario.node[0].appl  speed  ETV
vector 4  scenario.node[0].appl  posx  ETV
vector 5  scenario.node[0].appl  posy  ETV
vector 22  scenario.node[1].appl  distance  ETV
vector 23  scenario.node[1].appl  relativeSpeed  ETV
vector 24  scenario.node[1].appl  nodeId  ETV
vector 28  scenario.node[1].appl  acceleration  ETV
vector 29  scenario.node[1].appl  controllerAcceleration  ETV
vector 25  scenario.node[1].appl  speed  ETV
vector 26  scenario.node[1].appl  posx  ETV
vector 27  scenario.node[1].appl  posy  ETV
vector 44  scenario.node[2].appl  distance  ETV
vector 45  scenario.node[2].appl  relativeSpeed  ETV
vector 46  scenario.node[2].appl  nodeId  ETV
vector 50  scenario.node[2].appl  acceleration  ETV
vector 51  scenario.node[2].appl  controllerAcceleration  ETV
vector 47  scenario.node[2].appl  speed  ETV
vector 48  scenario.node[2].appl  posx  ETV
vector 49  scenario.node[2].appl  posy  ETV
vector 66  scenario.node[3].appl  distance  ETV
vector 67  scenario.node[3].appl  relativeSpeed  ETV
vector 68  scenario.node[3].appl  nodeId  ETV
vector 72  scenario.node[3].appl  acceleration  ETV
vector 73  scenario.node[3].appl  controllerAcceleration  ETV
vector 69  scenario.node[3].appl  speed  ETV
vector 70  scenario.node[3].appl  posx  ETV
vector 71  scenario.node[3].appl  posy  ETV
vector 88  scenario.node[4].appl  distance  ETV
vector 89  scenario.node[4].appl  relativeSpeed  ETV
vector 90  scenario.node[4].appl  nodeId  ETV
vector 94  scenario.node[4].appl  acceleration  ETV
vector 95  scenario.node[4].appl  controllerAcceleration  ETV
vector 91  scenario.node[4].appl  speed  ETV
vector 92  scenario.node[4].appl  posx  ETV
vector 93  scenario.node[4].appl  posy  ETV
vector 110  scenario.node[5].appl  distance  ETV
vector 111  scenario.node[5].appl  relativeSpeed  ETV
vector 112  scenario.node[5].appl  nodeId  ETV
vector 116  scenario.node[5].appl  acceleration  ETV
vector 117  scenario.node[5].appl  controllerAcceleration  ETV
vector 113  scenario.node[5].appl  speed  ETV
vector 114  scenario.node[5].appl  posx  ETV
vector 115  scenario.node[5].appl  posy  ETV
vector 132  scenario.node[6].appl  distance  ETV
vector 133  scenario.node[6].appl  relativeSpeed  ETV
vector 134  scenario.node[6].appl  nodeId  ETV
vector 138  scenario.node[6].appl  acceleration  ETV
vector 139  scenario.node[6].appl  controllerAcceleration  ETV
vector 135  scenario.node[6].appl  speed  ETV
vector 136  scenario.node[6].appl  posx  ETV
vector 137  scenario.node[6].appl  posy  ETV
vector 154  scenario.node[7].appl  distance  ETV
vector 155  scenario.node[7].appl  relativeSpeed  ETV
vector 156  scenario.node[7].appl  nodeId  ETV
vector 160  scenario.node[7].appl  acceleration  ETV
vector 161  scenario.node[7].appl  controllerAcceleration  ETV
vector 157  scenario.node[7].appl  speed  ETV
vector 158  scenario.node[7].appl  posx  ETV
vector 159  scenario.node[7].appl  posy  ETV
vector 102  scenario.node[4].prot  frontDelay  ETV
vector 100  scenario.node[4].prot  frontDelayId  ETV
vector 35  scenario.node[1].prot  leaderDelay  ETV
vector 33  scenario.node[1].prot  leaderDelayId  ETV
vector 36  scenario.node[1].prot  frontDelay  ETV
vector 34  scenario.node[1].prot  frontDelayId  ETV
vector 57  scenario.node[2].prot  leaderDelay  ETV
vector 55  scenario.node[2].prot  leaderDelayId  ETV
vector 79  scenario.node[3].prot  leaderDelay  ETV
vector 77  scenario.node[3].prot  leaderDelayId  ETV
vector 101  scenario.node[4].prot  leaderDelay  ETV
vector 99  scenario.node[4].prot  leaderDelayId  ETV
vector 123  scenario.node[5].prot  leaderDelay  ETV
vector 121  scenario.node[5].prot  leaderDelayId  ETV
vector 145  scenario.node[6].prot  leaderDelay  ETV
vector 143  scenario.node[6].prot  leaderDelayId  ETV
vector 167  scenario.node[7].prot  leaderDelay  ETV
vector 165  scenario.node[7].prot  leaderDelayId  ETV
vector 80  scenario.node[3].prot  frontDelay  ETV
vector 78  scenario.node[3].prot  frontDelayId  ETV
vector 146  scenario.node[6].prot  frontDelay  ETV
vector 144  scenario.node[6].prot  frontDelayId  ETV
vector 58  scenario.node[2].prot  frontDelay  ETV
vector 56  scenario.node[2].prot  frontDelayId  ETV
vector 124  scenario.node[5].prot  frontDelay  ETV
vector 122  scenario.node[5].prot  frontDelayId  ETV
vector 168  scenario.node[7].prot  frontDelay  ETV
vector 166  scenario.node[7].prot  frontDelayId  ETV
vector 8  scenario.node[0].prot  nodeId  ETV
vector 9  scenario.node[0].prot  busyTime  ETV
vector 10  scenario.node[0].prot  collisions  ETV
vector 30  scenario.node[1].prot  nodeId  ETV
vector 31  scenario.node[1].prot  busyTime  ETV
vector 32  scenario.node[1].prot  collisions  ETV
vector 52  scenario.node[2].prot  nodeId  ETV
vector 53  scenario.node[2].prot  busyTime  ETV
vector 54  scenario.node[2].prot  collisions  ETV
vector 74  scenario.node[3].prot  nodeId  ETV
vector 75  scenario.node[3].prot  busyTime  ETV
vector 76  scenario.node[3].prot  collisions  ETV
vector 96  scenario.node[4].prot  nodeId  ETV
vector 97  scenario.node[4].prot  busyTime  ETV
vector 98  scenario.node[4].prot  collisions  ETV
vector 118  scenario.node[5].prot  nodeId  ETV
vector 119  scenario.node[5].prot  busyTime  ETV
vector 120  scenario.node[5].prot  collisions  ETV
vector 140  scenario.node[6].prot  nodeId  ETV
vector 141  scenario.node[6].prot  busyTime  ETV
vector 142  scenario.node[6].prot  collisions  ETV
vector 162  scenario.node[7].prot  nodeId  ETV
vector 163  scenario.node[7].prot  busyTime  ETV
vector 164  scenario.node[7].prot  collisions  ETV
7	11241 13860 232 328174 1.11 59.91 589 -1.5 1.5 -14.445969899918 993.24092361736
6	25101 18587 232 328174 1.11 59.91 589 -1.472274679513 1.4513434175798 -12.507264912644 675.29835211523
5	43688 12081 232 328174 1.11 59.91 589 36.55 36.55 21527.95 786846.5725
4	55769 17914 232 328174 1.11 59.91 589 110.66408882128 931.64688731922 307780.35145325 193878112.50268
3	73683 17901 232 328174 1.11 59.91 589 12.599076970844 15.853603639796 8223.2832500118 115251.79065057
1	91584 9725 232 328174 1.11 59.91 589 0 0 0 0
0	101309 10314 232 328174 1.11 59.91 589 -1 -1 -589 589
2	111623 9725 232 328174 1.11 59.91 589 0 0 0 0
10	121348 859 5234 328728 2 60 59 0 0 0 0
9	122207 1155 5234 328728 2 60 59 0.023625 0.02625 1.546125 0.040523765625
8	123362 800 5234 328728 2 60 59 0 0 0 0
29	124162 19074 233 328175 1.11 59.91 589 -1.5034793945977 1.50245114211 -15.505713281733 989.15336803503
28	143236 19170 233 328175 1.11 59.91 589 -1.4807765622439 1.4557932512774 -12.221049674903 676.42621587977
27	162406 12670 233 328175 1.11 59.91 589 36.55 36.55 21527.95 786846.5725
26	175076 18511 233 328175 1.11 59.91 589 101.66408882141 922.71146423862 302479.98439478 188386529.2093
25	193587 18494 233 328175 1.11 59.91 589 12.598396914678 15.860240752882 8223.9400402639 115270.99042129
23	212081 20109 233 328175 1.11 59.91 589 -0.064317873081331 0.062036134199808 -0.53171760296185 1.2272975735315
22	232190 18487 233 328175 1.11 59.91 589 4.91622437847 5.0934696192997 2944.3801942713 14720.036184124
24	250677 10314 233 328175 1.11 59.91 589 1 1 589 589
36	260991 23714 964 328350 1.241822900623 59.941816563758 588 0.099998658966 0.100011662497 58.799992323592 5.8799984738238
35	284705 23714 964 328350 1.241822900623 59.941816563758 588 0.099998658966 0.100011662497 58.799992323592 5.8799984738238
34	308419 16129 964 328350 1.241822900623 59.941816563758 588 1 1 588 588
33	324548 16129 964 328350 1.241822900623 59.941816563758 588 1 1 588 588
32	340677 859 5235 328729 2 60 59 0 0 0 0
31	341536 1214 5235 328729 2 60 59 0.023625 0.02625 1.546125 0.040523765625
30	342750 859 5235 328729 2 60 59 1 1 59 59
51	343609 19090 234 328176 1.11 59.91 589 -1.5169291868394 1.5151528891412 -15.601275548767 999.482018274
50	362699 19170 234 328176 1.11 59.91 589 -1.4744692136986 1.4486483625669 -12.050529101367 671.79687462976
49	381869 12670 234 328176 1.11 59.91 589 36.55 36.55 21527.95 786846.5725
48	394539 18503 234 328176 1.11 59.91 589 92.664088821411 913.73308743244 297179.27784459 182990143.37512
47	413042 18492 234 328176 1.11 59.91 589 12.600918184387 15.85358889867 8224.1625785331 115273.99556832
45	431534 20330 234 328176 1.11 59.91 589 -0.018683343092555 0.016164856878342 -0.10032777251161 0.063853355522765
44	451864 18488 234 328176 1.11 59.91 589 4.9677844923505 5.0430601820761 2944.7110009547 14722.291098969
46	470352 10314 234 328176 1.11 59.91 589 2 2 1178 2356
58	480666 23711 1176 328562 1.28193217081 59.981938833536 588 0.099998658959 0.100011662521 58.800005323183 5.8800010738762
57	504377 23703 970 328356 1.241822930644 59.941816593705 588 0.099998658967 0.100011662495 58.799992323518 5.879998473809
56	528080 16126 1176 328562 1.28193217081 59.981938833536 588 2 2 1176 2352
55	544206 16115 970 328356 1.241822930644 59.941816593705 588 2 2 1176 2352
54	560321 859 5236 328730 2 60 59 0 0 0 0
53	561180 1214 5236 328730 2 60 59 0.023625 0.02625 1.546125 0.040523765625
52	562394 859 5236 328730 2 60 59 2 2 118 236
73	563253 19080 235 328177 1.11 59.91 589 -1.498521207469 1.4980940761148 -15.55113073907 975.17533152367
72	582333 19216 235 328177 1.11 59.91 589 -1.4637937952827 1.4376572541694 -11.863343635487 661.19219236371
71	601549 12670 235 328177 1.11 59.91 589 36.55 36.55 21527.95 786846.5725
70	614219 18488 235 328177 1.11 59.91 589 83.664088821411 904.74524117438 291878.5540873 177689294.48451
69	632707 18499 235 328177 1.11 59.91 589 12.610401183747 15.843334440892 8224.2909217102 115270.86255912
67	651206 20486 235 328177 1.11 59.91 589 -0.015548587667887 0.013757102091036 -0.0078378860863957 0.032310857959172
66	671692 18491 235 328177 1.11 59.91 589 4.9738525530163 5.0387418270016 2944.7263241567 14722.377231877
68	690183 10314 235 328177 1.11 59.91 589 3 3 1767 5301
80	700497 23702 1040 328426 1.262749960665 59.962756623682 588 0.099998658965 0.100011662364 58.800005323474 5.8800010739344
79	724199 23695 976 328362 1.241822960664 59.941816623684 588 0.099998658964 0.100011662496 58.799992323477 5.8799984738008
78	747894 16116 1040 328426 1.262749960665 59.962756623682 588 3 3 1764 5292
77	764010 16113 976 328362 1.241822960664 59.941816623684 588 3 3 1764 5292
76	780123 859 5237 328731 2 60 59 0 0 0 0
75	780982 1214 5237 328731 2 60 59 0.023625 0.02625 1.546125 0.040523765625
74	782196 859 5237 328731 2 60 59 3 3 177 531
95	783055 19028 236 328178 1.11 59.91 589 -1.4920639073632 1.4922979971075 -15.604517202432 959.38421666694
94	802083 19170 236 328178 1.11 59.91 589 -1.460697948616 1.43365119393 -11.62834058304 657.77645985906
93	821253 12670 236 328178 1.11 59.91 589 36.55 36.55 21527.95 786846.5725
92	833923 18494 236 328178 1.11 59.91 589 74.664088821411 895.77547048424 286577.80709031 172483955.75527
91	852417 18505 236 328178 1.11 59.91 589 12.61486507218 15.84072568526 8224.6019152791 115277.24898588
89	870922 20150 236 328178 1.11 59.91 589 -0.026253898448637 0.025337550268098 -0.19236013248051 0.19499446181397
88	891072 18484 236 328178 1.11 59.91 589 4.9580811740684 5.0545017016237 2944.7532168574 14722.863012385
90	909556 10314 236 328178 1.11 59.91 589 4 4 2356 9424
102	919870 24274 904 328284 1.240525810561 59.940532474146 588 0.099998658953 0.100011662399 58.800005324042 5.880001074048
101	944144 24298 982 328368 1.241822990685 59.941816653601 588 0.099998658966 0.100011662493 58.799992323373 5.87999847378
100	968442 16699 904 328284 1.240525810561 59.940532474146 588 4 4 2352 9408
99	985141 16120 982 328368 1.241822990685 59.941816653601 588 4 4 2352 9408
98	1001261 859 5238 328732 2 60 59 0 0 0 0
97	1002120 1214 5238 328732 2 60 59 0.023625 0.02625 1.546125 0.040523765625
96	1003334 859 5238 328732 2 60 59 4 4 236 944
117	1004193 19683 237 328179 1.11 59.91 589 -1.4980277566388 1.4988827652989 -15.564530207387 972.70727593886
116	1023876 19756 237 328179 1.11 59.91 589 -1.4539402688536 1.4286559792044 -11.691109405178 653.61597942525
115	1043632 13259 237 328179 1.11 59.91 589 36.55 36.55 21527.95 786846.5725
114	1056891 19093 237 328179 1.11 59.91 589 65.664088821411 886.75891016911 281277.19462416 167374024.45321
113	1075984 19089 237 328179 1.11 59.91 589 12.617911016286 15.832912353675 8224.4338174744 115269.88550866
111	1095073 20698 237 328179 1.11 59.91 589 -0.034429564717909 0.035220621427172 0.28438121051184 0.36851193008077
110	1115771 19074 237 328179 1.11 59.91 589 4.9774898037654 5.0290411183933 2944.6091041972 14721.181537306
112	1134845 10903 237 328179 1.11 59.91 589 5 5 2945 14725
124	1145748 24269 1242 328628 1.287402260872 59.987395923503 588 0.099998658956 0.100011662332 58.800005323088 5.8800010738572
123	1170017 24296 988 328374 1.241823020706 59.941816683678 588 0.099998658963 0.100011662497 58.799992323429 5.8799984737912
122	1194313 16688 1242 328628 1.287402260872 59.987395923503 588 5 5 2940 14700
121	1211001 16715 988 328374 1.241823020706 59.941816683678 588 5 5 2940 14700
120	1227716 918 5239 328733 2 60 59 0 0 0 0
119	1228634 1273 5239 328733 2 60 59 0.023625 0.02625 1.546125 0.040523765625
118	1229907 918 5239 328733 2 60 59 5 5 295 1475
139	1230825 19658 238 328180 1.11 59.91 589 -1.4889617684878 1.4892820995499 -15.439953174165 953.20495851882
138	1250483 19762 238 328180 1.11 59.91 589 -1.4484613546822 1.423662587581 -11.65369479197 647.40831797886
137	1270245 13259 238 328180 1.11 59.91 589 36.55 36.55 21527.95 786846.5725
136	1283504 19077 238 328180 1.11 59.91 589 56.664088821411 877.75453419492 275976.51335698 162359540.53377
135	1302581 19065 238 328180 1.11 59.91 589 12.624163776925 15.824463002073 8224.3913348106 115264.88947763
133	1321646 20764 238 328180 1.11 59.91 589 -0.018955475404908 0.019374226142491 0.15939375782218 0.10920744440621
132	1342410 19066 238 328180 1.11 59.91 589 4.9898917587916 5.015069377966 2944.680417529 14721.821567067
134	1361476 10903 238 328180 1.11 59.91 589 6 6 3534 21204
146	1372379 24299 1106 328486 1.266712050727 59.96670571371 588 0.099998658961 0.1000116625 58.79999232344 5.8799984737934
145	1396678 24299 994 328380 1.241823050727 59.941816713713 588 0.099998658961 0.100011662499 58.799992323443 5.879998473794
144	1420977 16715 1106 328486 1.266712050727 59.96670571371 588 6 6 3528 21168
143	1437692 16713 994 328380 1.241823050727 59.941816713713 588 6 6 3528 21168
142	1454405 918 5240 328734 2 60 59 0 0 0 0
141	1455323 1273 5240 328734 2 60 59 0.023625 0.02625 1.546125 0.040523765625
140	1456596 918 5240 328734 2 60 59 6 6 354 2124
161	1457514 19669 239 328181 1.11 59.91 589 -1.4963534205583 1.4966188769194 -15.491110669654 972.37447565191
160	1477183 19760 239 328181 1.11 59.91 589 -1.4517793346167 1.4282120411339 -11.787767161119 653.87841385981
159	1496943 13259 239 328181 1.11 59.91 589 36.55 36.55 21527.95 786846.5725
158	1510202 19089 239 328181 1.11 59.91 589 47.664088821411 868.74554780613 270675.90478387 157440389.62093
157	1529291 19080 239 328181 1.11 59.91 589 12.617360502582 15.82884066924 8224.2965765658 115266.10975502
155	1548371 20703 239 328181 1.11 59.91 589 -0.031900534117684 0.034536358438602 0.21129519278447 0.27929142945646
154	1569074 19069 239 328181 1.11 59.91 589 4.9775604260814 5.0229359509233 2944.6066779464 14721.127653668
156	1588143 10903 239 328181 1.11 59.91 589 7 7 4123 28861
168	1599046 24282 1308 328694 1.289466320914 59.989472983592 588 0.099998658955 0.100011662511 58.800005323135 5.8800010738666
167	1623328 24263 1000 328386 1.241823080747 59.941816743765 588 0.099998658962 0.100011662501 58.799992323475 5.8799984738004
166	1647591 16703 1308 328694 1.289466320914 59.989472983592 588 7 7 4116 28812
165	1664294 16690 1000 328386 1.241823080747 59.941816743765 588 7 7 4116 28812
164	1680984 918 5241 328735 2 60 59 0 0 0 0
163	1681902 1273 5241 328735 2 60 59 0.023625 0.02625 1.546125 0.040523765625
162	1683175 918 5241 328735 2 60 59 7 7 413 2891
