file 1682106 1501688458                                         
version 2
run SinusoidalPosInjectionAttack-27-20170802-17:40:27-89421
attr CACCSpacing 20
attr attackAcc -30
attr attackPos 3
attr attackSpeed 150
attr attackStart 30
attr attacker 2
attr beaconInterval 0.1
attr configname SinusoidalPosInjectionAttack
attr controller 1
attr datetime 20170802-17:40:27
attr experiment SinusoidalPosInjectionAttack
attr fakeAcc "(2 == 4)"
attr fakePos "(2 == 2)"
attr fakeSpeed "(2 == 3)"
attr inifile omnetpp_27.ini
attr iterationvars "$attacker=2, $attackSpeed=150, $attackPos=3, $attackAcc=-30, $leaderSpeed=100, $controller=1, $CACCSpacing=20, $sController=\"CACC\", $attackStart=30, $0=20, $1=0, $nCars=8, $platoonSize=8, $nLanes=1, $beaconInterval=0.1, $priority=2, $packetSize=200, $ploegH=0.5, $leaderHeadway=1.2, $fakeSpeed=(2 == 3), $fakeAcc=(2 == 4), $fakePos=(2 == 2)"
attr iterationvarsf attacker=2,attackSpeed=150,attackPos=3,attackAcc=-30,leaderSpeed=100,controller=1,CACCSpacing=20,sController=CACC,attackStart=30,20,0,nCars=8,platoonSize=8,nLanes=1,beaconInterval=0.1,priority=2,packetSize=200,ploegH=0.5,leaderHeadway=1.2,fakeSpeed=(2_==_3),fakeAcc=(2_==_4),fakePos=(2_==_2)-
attr leaderHeadway 1.2
attr leaderSpeed 100
attr measurement "$attacker=2, $attackSpeed=150, $attackPos=3, $attackAcc=-30, $leaderSpeed=100, $controller=1, $CACCSpacing=20, $sController=\"CACC\", $attackStart=30, $0=20, $1=0, $nCars=8, $platoonSize=8, $nLanes=1, $beaconInterval=0.1, $priority=2, $packetSize=200, $ploegH=0.5, $leaderHeadway=1.2, $fakeSpeed=(2 == 3), $fakeAcc=(2 == 4), $fakePos=(2 == 2)"
attr nCars 8
attr nLanes 1
attr network scenario
attr packetSize 200
attr platoonSize 8
attr ploegH 0.5
attr priority 2
attr processid 89421
attr repetition 2
attr replication #2
attr resultdir results
attr runnumber 27
attr sController "\"CACC\""
attr seedset 2
param **.coreDebug false
param **.debug false
param **.headway 0.1s
param **.numberOfCars 8
param **.numberOfCarsPerPlatoon 8
param **.numberOfLanes 1
param **.numericController 1
param **.traffic.nCars 8
param **.traffic.nLanes 1
param **.traffic.platoonInsertDistance 20m
param **.traffic.platoonInsertHeadway 0s
param **.traffic.platoonInsertSpeed 100kmph
param **.traffic.platoonInsertTime "1 s"
param **.traffic.platoonLeaderHeadway 1.2s
param **.traffic.platoonSize 8
param **.traffic.platooningVType "\"vtypeauto\""
param **.traffic_type "\"PlatoonsTrafficManager\""
param *.**.nic.mac1609_4.bitrate 6Mbps
param *.**.nic.mac1609_4.txPower 100mW
param *.**.nic.mac1609_4.useServiceChannel false
param *.**.nic.phy80211p.analogueModels "xmldoc(\"config.xml\")"
param *.**.nic.phy80211p.decider "xmldoc(\"config.xml\")"
param *.**.nic.phy80211p.maxTXPower 100mW
param *.**.nic.phy80211p.sensitivity -94dBm
param *.**.nic.phy80211p.thermalNoise -95dBm
param *.**.nic.phy80211p.usePropagationDelay true
param *.**.nic.phy80211p.useThermalNoise true
param *.annotations.draw false
param *.connectionManager.alpha 2.0
param *.connectionManager.carrierFrequency "5.890e9 Hz"
param *.connectionManager.pMax 100mW
param *.connectionManager.sat -94dBm
param *.connectionManager.sendDirect true
param *.manager.autoShutdown true
param *.manager.commandLine "\"sumo --remote-port $port --seed $seed --configuration-file $configFile\""
param *.manager.configFile "\"./sumocfg/freeway.sumo.cfg\""
param *.manager.host "\"localhost\""
param *.manager.margin 25
param *.manager.moduleDisplayString "\"\""
param *.manager.moduleName "\"node\""
param *.manager.moduleType "\"Car\""
param *.manager.updateInterval 0.01s
param *.node[*].appl.attackStart 30s
param *.node[*].appl.attackerType 2
param *.node[*].appl.simulationDuration "60 s"
param *.node[*].appl_type "\"SimplePlatooningApp\""
param *.node[*].helper.nCars 8
param *.node[*].helper.nLanes 1
param *.node[*].helper.platoonSize 8
param *.node[*].helper_type "\"PositionHelper\""
param *.node[*].mobility.x 0
param *.node[*].mobility.y 0
param *.node[*].mobility.z 1.895
param *.node[*].prot.attackStart 30s
param *.node[*].prot.attackerType 2
param *.node[*].prot.attackingNode 3
param *.node[*].prot.beaconingInterval 0.1s
param *.node[*].prot.fakeAcc "(2 == 4)"
param *.node[*].prot.fakePos "(2 == 2)"
param *.node[*].prot.fakeSpeed "(2 == 3)"
param *.node[*].prot.maliciousAcc "-30 mpss"
param *.node[*].prot.maliciousSpeed 150kmph
param *.node[*].prot.packetSize 200
param *.node[*].prot.priority 2
param *.node[*].prot.shiftX "3 m"
param *.node[*].prot.useControllerAcceleration true
param *.node[*].protocol_type "\"SimplePlatooningBeaconing\""
param *.node[*].scenario.accHeadway 0.1s
param *.node[*].scenario.caccC1 0.5
param *.node[*].scenario.caccOmegaN "0.2 Hz"
param *.node[*].scenario.caccSpacing 20m
param *.node[*].scenario.caccXi 1
param *.node[*].scenario.controller "\"CACC\""
param *.node[*].scenario.engineTau "0.5 s"
param *.node[*].scenario.leaderHeadway 1.2s
param *.node[*].scenario.leaderOscillationFrequency "0.2 Hz"
param *.node[*].scenario.leaderSpeed 100kmph
param *.node[*].scenario.oscillationAmplitude "10 kmph"
param *.node[*].scenario.ploegH 0.5s
param *.node[*].scenario.ploegKd 0.7
param *.node[*].scenario.ploegKp 0.2
param *.node[*].scenario.startOscillating "5 s"
param *.node[*].scenario.useRealisticEngine false
param *.node[*].scenario_type "\"SinusoidalScenario\""
param *.node[*].unicast.packetLossRate 0
param *.obstacles.debug false
param *.playgroundSizeX 65000m
param *.playgroundSizeY 25000m
param *.playgroundSizeZ 50m
param *.world.use2D false
param *.world.useTorus false

vector 0  scenario.node[0].appl  distance  ETV
vector 1  scenario.node[0].appl  relativeSpeed  ETV
vector 2  scenario.node[0].appl  nodeId  ETV
vector 6  scenario.node[0].appl  acceleration  ETV
vector 7  scenario.node[0].appl  controllerAcceleration  ETV
vector 3  scenario.node[0].appl  speed  ETV
vector 4  scenario.node[0].appl  posx  ETV
vector 5  scenario.node[0].appl  posy  ETV
vector 22  scenario.node[1].appl  distance  ETV
vector 23  scenario.node[1].appl  relativeSpeed  ETV
vector 24  scenario.node[1].appl  nodeId  ETV
vector 28  scenario.node[1].appl  acceleration  ETV
vector 29  scenario.node[1].appl  controllerAcceleration  ETV
vector 25  scenario.node[1].appl  speed  ETV
vector 26  scenario.node[1].appl  posx  ETV
vector 27  scenario.node[1].appl  posy  ETV
vector 44  scenario.node[2].appl  distance  ETV
vector 45  scenario.node[2].appl  relativeSpeed  ETV
vector 46  scenario.node[2].appl  nodeId  ETV
vector 50  scenario.node[2].appl  acceleration  ETV
vector 51  scenario.node[2].appl  controllerAcceleration  ETV
vector 47  scenario.node[2].appl  speed  ETV
vector 48  scenario.node[2].appl  posx  ETV
vector 49  scenario.node[2].appl  posy  ETV
vector 66  scenario.node[3].appl  distance  ETV
vector 67  scenario.node[3].appl  relativeSpeed  ETV
vector 68  scenario.node[3].appl  nodeId  ETV
vector 72  scenario.node[3].appl  acceleration  ETV
vector 73  scenario.node[3].appl  controllerAcceleration  ETV
vector 69  scenario.node[3].appl  speed  ETV
vector 70  scenario.node[3].appl  posx  ETV
vector 71  scenario.node[3].appl  posy  ETV
vector 88  scenario.node[4].appl  distance  ETV
vector 89  scenario.node[4].appl  relativeSpeed  ETV
vector 90  scenario.node[4].appl  nodeId  ETV
vector 94  scenario.node[4].appl  acceleration  ETV
vector 95  scenario.node[4].appl  controllerAcceleration  ETV
vector 91  scenario.node[4].appl  speed  ETV
vector 92  scenario.node[4].appl  posx  ETV
vector 93  scenario.node[4].appl  posy  ETV
vector 110  scenario.node[5].appl  distance  ETV
vector 111  scenario.node[5].appl  relativeSpeed  ETV
vector 112  scenario.node[5].appl  nodeId  ETV
vector 116  scenario.node[5].appl  acceleration  ETV
vector 117  scenario.node[5].appl  controllerAcceleration  ETV
vector 113  scenario.node[5].appl  speed  ETV
vector 114  scenario.node[5].appl  posx  ETV
vector 115  scenario.node[5].appl  posy  ETV
vector 132  scenario.node[6].appl  distance  ETV
vector 133  scenario.node[6].appl  relativeSpeed  ETV
vector 134  scenario.node[6].appl  nodeId  ETV
vector 138  scenario.node[6].appl  acceleration  ETV
vector 139  scenario.node[6].appl  controllerAcceleration  ETV
vector 135  scenario.node[6].appl  speed  ETV
vector 136  scenario.node[6].appl  posx  ETV
vector 137  scenario.node[6].appl  posy  ETV
vector 154  scenario.node[7].appl  distance  ETV
vector 155  scenario.node[7].appl  relativeSpeed  ETV
vector 156  scenario.node[7].appl  nodeId  ETV
vector 160  scenario.node[7].appl  acceleration  ETV
vector 161  scenario.node[7].appl  controllerAcceleration  ETV
vector 157  scenario.node[7].appl  speed  ETV
vector 158  scenario.node[7].appl  posx  ETV
vector 159  scenario.node[7].appl  posy  ETV
vector 168  scenario.node[7].prot  frontDelay  ETV
vector 166  scenario.node[7].prot  frontDelayId  ETV
vector 146  scenario.node[6].prot  frontDelay  ETV
vector 144  scenario.node[6].prot  frontDelayId  ETV
vector 35  scenario.node[1].prot  leaderDelay  ETV
vector 33  scenario.node[1].prot  leaderDelayId  ETV
vector 36  scenario.node[1].prot  frontDelay  ETV
vector 34  scenario.node[1].prot  frontDelayId  ETV
vector 57  scenario.node[2].prot  leaderDelay  ETV
vector 55  scenario.node[2].prot  leaderDelayId  ETV
vector 79  scenario.node[3].prot  leaderDelay  ETV
vector 77  scenario.node[3].prot  leaderDelayId  ETV
vector 101  scenario.node[4].prot  leaderDelay  ETV
vector 99  scenario.node[4].prot  leaderDelayId  ETV
vector 123  scenario.node[5].prot  leaderDelay  ETV
vector 121  scenario.node[5].prot  leaderDelayId  ETV
vector 145  scenario.node[6].prot  leaderDelay  ETV
vector 143  scenario.node[6].prot  leaderDelayId  ETV
vector 167  scenario.node[7].prot  leaderDelay  ETV
vector 165  scenario.node[7].prot  leaderDelayId  ETV
vector 102  scenario.node[4].prot  frontDelay  ETV
vector 100  scenario.node[4].prot  frontDelayId  ETV
vector 80  scenario.node[3].prot  frontDelay  ETV
vector 78  scenario.node[3].prot  frontDelayId  ETV
vector 124  scenario.node[5].prot  frontDelay  ETV
vector 122  scenario.node[5].prot  frontDelayId  ETV
vector 58  scenario.node[2].prot  frontDelay  ETV
vector 56  scenario.node[2].prot  frontDelayId  ETV
vector 8  scenario.node[0].prot  nodeId  ETV
vector 9  scenario.node[0].prot  busyTime  ETV
vector 10  scenario.node[0].prot  collisions  ETV
vector 30  scenario.node[1].prot  nodeId  ETV
vector 31  scenario.node[1].prot  busyTime  ETV
vector 32  scenario.node[1].prot  collisions  ETV
vector 52  scenario.node[2].prot  nodeId  ETV
vector 53  scenario.node[2].prot  busyTime  ETV
vector 54  scenario.node[2].prot  collisions  ETV
vector 74  scenario.node[3].prot  nodeId  ETV
vector 75  scenario.node[3].prot  busyTime  ETV
vector 76  scenario.node[3].prot  collisions  ETV
vector 96  scenario.node[4].prot  nodeId  ETV
vector 97  scenario.node[4].prot  busyTime  ETV
vector 98  scenario.node[4].prot  collisions  ETV
vector 118  scenario.node[5].prot  nodeId  ETV
vector 119  scenario.node[5].prot  busyTime  ETV
vector 120  scenario.node[5].prot  collisions  ETV
vector 140  scenario.node[6].prot  nodeId  ETV
vector 141  scenario.node[6].prot  busyTime  ETV
vector 142  scenario.node[6].prot  collisions  ETV
vector 162  scenario.node[7].prot  nodeId  ETV
vector 163  scenario.node[7].prot  busyTime  ETV
vector 164  scenario.node[7].prot  collisions  ETV
7	11253 13860 232 328174 1.11 59.91 589 -1.5 1.5 -14.445974034379 993.24092368185
6	25113 18594 232 328174 1.11 59.91 589 -1.4722746794938 1.4513434175793 -12.50726914995 675.29835222675
5	43707 12081 232 328174 1.11 59.91 589 36.55 36.55 21527.95 786846.5725
4	55788 17908 232 328174 1.11 59.91 589 205.67107315037 1843.3205386928 604247.7987773 751680311.57073
3	73696 17905 232 328174 1.11 59.91 589 26.487965859734 29.742492528104 16403.83880962 457295.15275867
1	91601 9725 232 328174 1.11 59.91 589 0 0 0 0
0	101326 10314 232 328174 1.11 59.91 589 -1 -1 -589 589
2	111640 9725 232 328174 1.11 59.91 589 0 0 0 0
10	121365 858 5168 328662 2 60 59 0 0 0 0
9	122223 1154 5168 328662 2 60 59 0.023297 0.02625 1.545797 0.040508375209
8	123377 799 5168 328662 2 60 59 0 0 0 0
29	124176 17083 233 328175 1.11 59.91 589 -1.5201885305329 1.5215379202346 -16.62167418558 995.58727585756
28	141259 19173 233 328175 1.11 59.91 589 -1.4845166976844 1.4492363479558 -12.160484493322 675.58506012385
27	160432 12670 233 328175 1.11 59.91 589 36.55 36.55 21527.95 786846.5725
26	173102 18496 233 328175 1.11 59.91 589 181.67107315063 1819.2660222377 590054.80918314 722877696.88188
25	191598 18506 233 328175 1.11 59.91 589 26.48258984786 29.73823345156 16403.309238542 457265.69208542
23	210104 20109 233 328175 1.11 59.91 589 -0.085666453974401 0.092346610281723 0.65464376924892 2.4329174921465
22	230213 18513 233 328175 1.11 59.91 589 19.942679175015 20.230457319092 11836.979002739 237887.94077276
24	248726 10314 233 328175 1.11 59.91 589 1 1 589 589
36	259040 23694 1034 328420 1.262218481716 59.962221695887 588 0.099999759937 0.100012763302 58.800002975389 5.8800005969021
35	282734 23694 1034 328420 1.262218481716 59.962221695887 588 0.099999759937 0.100012763302 58.800002975389 5.8800005969021
34	306428 16112 1034 328420 1.262218481716 59.962221695887 588 1 1 588 588
33	322540 16112 1034 328420 1.262218481716 59.962221695887 588 1 1 588 588
32	338652 858 5169 328663 2 60 59 0 0 0 0
31	339510 1213 5169 328663 2 60 59 0.023296 0.02625 1.545796 0.040508328616
30	340723 858 5169 328663 2 60 59 1 1 59 59
51	341581 19038 234 328176 1.11 59.91 589 -1.4917898288586 1.4990053105845 -15.174466935371 962.21972667581
50	360619 19154 234 328176 1.11 59.91 589 -1.4755502027491 1.4415876758434 -11.894526730101 670.56364718249
49	379773 12670 234 328176 1.11 59.91 589 36.55 36.55 21527.95 786846.5725
48	392443 18489 234 328176 1.11 59.91 589 157.67107315063 1795.2392402488 575902.66461974 694854474.46671
47	410932 18492 234 328176 1.11 59.91 589 26.486010879124 29.732972235831 16403.048243756 457247.30712793
45	429424 20361 234 328176 1.11 59.91 589 -0.017774645562763 0.01657816441201 0.38259963052034 0.05731559474016
44	449785 18489 234 328176 1.11 59.91 589 19.98449325836 20.070358956117 11796.1393435 236246.30755166
46	468274 10314 234 328176 1.11 59.91 589 2 2 1178 2356
58	478588 23718 1312 328701 1.302598202214 60.002601416286 588 0.099999759924 0.100012763807 58.80000297529 5.8800005968822
57	502306 23704 1040 328426 1.262218561772 59.962221776028 588 0.099999759938 0.100012763298 58.800002975474 5.8800005969191
56	526010 16120 1312 328701 1.302598202214 60.002601416286 588 2 2 1176 2352
55	542130 16117 1040 328426 1.262218561772 59.962221776028 588 2 2 1176 2352
54	558247 858 5170 328664 2 60 59 0 0 0 0
53	559105 1213 5170 328664 2 60 59 0.023297 0.02625 1.545797 0.040508375209
52	560318 858 5170 328664 2 60 59 2 2 118 236
73	561176 18996 235 328177 1.11 59.91 589 -1.5133685791054 1.5080594308024 -15.67289456339 986.36881155195
72	580172 19183 235 328177 1.11 59.91 589 -1.4653396891678 1.436493307931 -11.753435584358 662.08108410511
71	599355 12670 235 328177 1.11 59.91 589 36.55 36.55 21527.95 786846.5725
70	612025 18495 235 328177 1.11 59.91 589 133.67108078003 1771.2622503157 561773.06207921 667565608.4275
69	630520 18505 235 328177 1.11 59.91 589 26.494697527224 29.724026757341 16403.284090767 457255.32536248
67	649025 20562 235 328177 1.11 59.91 589 -0.015548640117991 0.011230165382802 -0.1169017430126 0.020984440754717
66	669587 18504 235 328177 1.11 59.91 589 19.962130300895 20.035282165289 11773.607257474 235344.49995839
68	688091 10314 235 328177 1.11 59.91 589 3 3 1767 5301
80	698405 23714 1176 328556 1.287874801937 59.987878015954 588 0.099999759933 0.100012763801 58.800002975235 5.8800005968712
79	722119 23700 1046 328432 1.262218641827 59.962221856004 588 0.099999759936 0.100012763295 58.800002975395 5.8800005969033
78	745819 16119 1176 328556 1.287874801937 59.987878015954 588 3 3 1764 5292
77	761938 16116 1046 328432 1.262218641827 59.962221856004 588 3 3 1764 5292
76	778054 858 5171 328665 2 60 59 0 0 0 0
75	778912 1213 5171 328665 2 60 59 0.023297 0.02625 1.545797 0.040508375209
74	780125 858 5171 328665 2 60 59 3 3 177 531
95	780983 19092 236 328178 1.11 59.91 589 -1.4996309275275 1.5 -15.523078229369 967.70518952573
94	800075 19181 236 328178 1.11 59.91 589 -1.4560433271356 1.4292962600884 -11.633988785517 653.26198224119
93	819256 12670 236 328178 1.11 59.91 589 36.55 36.55 21527.95 786846.5725
92	831926 18499 236 328178 1.11 59.91 589 109.67108078003 1747.2661913134 547639.98129948 640946339.37834
91	850425 18499 236 328178 1.11 59.91 589 26.50394658703 29.713822390926 16403.327731659 457252.31669943
89	868924 20513 236 328178 1.11 59.91 589 -0.013442531401097 0.011890480761632 0.073893463403273 0.033713494263721
88	889437 18466 236 328178 1.11 59.91 589 19.978354000142 20.022254960667 11777.081652549 235483.33210148
90	907903 10314 236 328178 1.11 59.91 589 4 4 2356 9424
102	918217 24274 1108 328494 1.276580721882 59.976583936044 588 0.099999759934 0.100012763824 58.80000297538 5.8800005969002
101	942491 24279 1052 328438 1.262218721883 59.962221936044 588 0.099999759933 0.100012763296 58.800002975379 5.8800005969001
100	966770 16687 1108 328494 1.276580721882 59.976583936044 588 4 4 2352 9408
99	983457 16111 1052 328438 1.262218721883 59.962221936044 588 4 4 2352 9408
98	999568 858 5172 328666 2 60 59 0 0 0 0
97	1000426 1213 5172 328666 2 60 59 0.023297 0.02625 1.545797 0.040508375209
96	1001639 858 5172 328666 2 60 59 4 4 236 944
117	1002497 18422 237 328179 1.11 59.91 589 -1.5082275563487 1.5070927529558 -15.899123371946 983.25839930519
116	1020919 19774 237 328179 1.11 59.91 589 -1.4565901731451 1.4325474503533 -11.7515894297 658.09297477256
115	1040693 13259 237 328179 1.11 59.91 589 36.55 36.55 21527.95 786846.5725
114	1053952 19106 237 328179 1.11 59.91 589 85.671076965332 1723.256666823 533505.9480284 615003623.01379
113	1073058 19067 237 328179 1.11 59.91 589 26.498939576024 29.715685304418 16403.228314777 457249.54575288
111	1092125 20728 237 328179 1.11 59.91 589 -0.03054582944787 0.03221480794419 0.21575677001507 0.25523668026079
110	1112853 19096 237 328179 1.11 59.91 589 19.977688792139 20.019410374198 11778.031282735 235521.31495748
112	1131949 10903 237 328179 1.11 59.91 589 5 5 2945 14725
124	1142852 24296 1244 328630 1.297504962048 59.997508176083 588 0.099999759931 0.100012763589 58.800002975253 5.8800005968748
123	1167148 24290 1058 328444 1.262218801938 59.962222016133 588 0.099999759934 0.100012763298 58.800002975413 5.8800005969069
122	1191438 16705 1244 328630 1.297504962048 59.997508176083 588 5 5 2940 14700
121	1208143 16706 1058 328444 1.262218801938 59.962222016133 588 5 5 2940 14700
120	1224849 917 5173 328667 2 60 59 0 0 0 0
119	1225766 1272 5173 328667 2 60 59 0.023297 0.02625 1.545797 0.040508375209
118	1227038 917 5173 328667 2 60 59 5 5 295 1475
139	1227955 19648 238 328180 1.11 59.91 589 -1.4953972047183 1.4959038795227 -15.57785998296 964.45061027043
138	1247603 19773 238 328180 1.11 59.91 589 -1.4603980363539 1.4356292483622 -11.653416516468 660.73170268752
137	1267376 13259 238 328180 1.11 59.91 589 36.55 36.55 21527.95 786846.5725
136	1280635 19073 238 328180 1.11 59.91 589 61.671076965332 1699.2790408206 519372.4346076 589740727.37456
135	1299708 19087 238 328180 1.11 59.91 589 26.497533136765 29.719606102249 16403.455734525 457263.86282149
133	1318795 21143 238 328180 1.11 59.91 589 -0.010290744311291 0.010619119393606 -0.10990385386708 0.030431782057291
132	1339938 19073 238 328180 1.11 59.91 589 19.967926444737 20.027592323733 11777.517969202 235500.85959315
134	1359011 10903 238 328180 1.11 59.91 589 6 6 3534 21204
146	1369914 24273 970 328350 1.247596081439 59.947599295154 588 0.09999975992 0.100012763853 58.800002974933 5.8800005968108
145	1394187 24306 1064 328450 1.262218881993 59.962222096112 588 0.099999759935 0.100012763292 58.800002975337 5.8800005968917
144	1418493 16694 970 328350 1.247596081439 59.947599295154 588 6 6 3528 21168
143	1435187 16720 1064 328450 1.262218881993 59.962222096112 588 6 6 3528 21168
142	1451907 917 5174 328668 2 60 59 0 0 0 0
141	1452824 1272 5174 328668 2 60 59 0.023297 0.02625 1.545797 0.040508375209
140	1454096 917 5174 328668 2 60 59 6 6 354 2124
161	1455013 19634 239 328181 1.11 59.91 589 -1.4856633883549 1.486643172463 -15.477394359576 939.52517254143
160	1474647 19771 239 328181 1.11 59.91 589 -1.4555086071685 1.430302535077 -11.567821299241 655.72349165408
159	1494418 13259 239 328181 1.11 59.91 589 36.55 36.55 21527.95 786846.5725
158	1507677 19088 239 328181 1.11 59.91 589 37.671077919006 1675.2866413239 505239.44810614 565157069.18066
157	1526765 19082 239 328181 1.11 59.91 589 26.503536687486 29.714489855221 16403.534640391 457265.02856506
155	1545847 21164 239 328181 1.11 59.91 589 -0.0097156351356347 0.0092554910337697 0.037628299545965 0.025650973207051
154	1567011 19090 239 328181 1.11 59.91 589 19.982546912655 20.013502934621 11776.988079573 235479.56557743
156	1586101 10903 239 328181 1.11 59.91 589 7 7 4123 28861
168	1597004 24300 832 328218 1.212137841273 59.912128055164 588 0.099999759918 0.100012762793 58.799989975109 5.8799979966833
167	1621304 24289 1070 328456 1.262218962049 59.962222176141 588 0.099999759934 0.100012763293 58.80000297531 5.8800005968862
166	1645593 16713 832 328218 1.212137841273 59.912128055164 588 7 7 4116 28812
165	1662306 16694 1070 328456 1.262218962049 59.962222176141 588 7 7 4116 28812
164	1679000 917 5175 328669 2 60 59 0 0 0 0
163	1679917 1272 5175 328669 2 60 59 0.023297 0.02625 1.545797 0.040508375209
162	1681189 917 5175 328669 2 60 59 7 7 413 2891
