file 1681979 1501689452                                         
version 2
run SinusoidalPosInjectionAttack-89-20170802-17:57:01-27822
attr CACCSpacing 20
attr attackAcc -30
attr attackPos 5
attr attackSpeed 150
attr attackStart 30
attr attacker 2
attr beaconInterval 0.1
attr configname SinusoidalPosInjectionAttack
attr controller 1
attr datetime 20170802-17:57:01
attr experiment SinusoidalPosInjectionAttack
attr fakeAcc "(2 == 4)"
attr fakePos "(2 == 2)"
attr fakeSpeed "(2 == 3)"
attr inifile omnetpp_89.ini
attr iterationvars "$attacker=2, $attackSpeed=150, $attackPos=5, $attackAcc=-30, $leaderSpeed=100, $controller=1, $CACCSpacing=20, $sController=\"CACC\", $attackStart=30, $0=20, $1=0, $nCars=8, $platoonSize=8, $nLanes=1, $beaconInterval=0.1, $priority=2, $packetSize=200, $ploegH=0.5, $leaderHeadway=1.2, $fakeSpeed=(2 == 3), $fakeAcc=(2 == 4), $fakePos=(2 == 2)"
attr iterationvarsf attacker=2,attackSpeed=150,attackPos=5,attackAcc=-30,leaderSpeed=100,controller=1,CACCSpacing=20,sController=CACC,attackStart=30,20,0,nCars=8,platoonSize=8,nLanes=1,beaconInterval=0.1,priority=2,packetSize=200,ploegH=0.5,leaderHeadway=1.2,fakeSpeed=(2_==_3),fakeAcc=(2_==_4),fakePos=(2_==_2)-
attr leaderHeadway 1.2
attr leaderSpeed 100
attr measurement "$attacker=2, $attackSpeed=150, $attackPos=5, $attackAcc=-30, $leaderSpeed=100, $controller=1, $CACCSpacing=20, $sController=\"CACC\", $attackStart=30, $0=20, $1=0, $nCars=8, $platoonSize=8, $nLanes=1, $beaconInterval=0.1, $priority=2, $packetSize=200, $ploegH=0.5, $leaderHeadway=1.2, $fakeSpeed=(2 == 3), $fakeAcc=(2 == 4), $fakePos=(2 == 2)"
attr nCars 8
attr nLanes 1
attr network scenario
attr packetSize 200
attr platoonSize 8
attr ploegH 0.5
attr priority 2
attr processid 27822
attr repetition 4
attr replication #4
attr resultdir results
attr runnumber 89
attr sController "\"CACC\""
attr seedset 4
param **.coreDebug false
param **.debug false
param **.headway 0.1s
param **.numberOfCars 8
param **.numberOfCarsPerPlatoon 8
param **.numberOfLanes 1
param **.numericController 1
param **.traffic.nCars 8
param **.traffic.nLanes 1
param **.traffic.platoonInsertDistance 20m
param **.traffic.platoonInsertHeadway 0s
param **.traffic.platoonInsertSpeed 100kmph
param **.traffic.platoonInsertTime "1 s"
param **.traffic.platoonLeaderHeadway 1.2s
param **.traffic.platoonSize 8
param **.traffic.platooningVType "\"vtypeauto\""
param **.traffic_type "\"PlatoonsTrafficManager\""
param *.**.nic.mac1609_4.bitrate 6Mbps
param *.**.nic.mac1609_4.txPower 100mW
param *.**.nic.mac1609_4.useServiceChannel false
param *.**.nic.phy80211p.analogueModels "xmldoc(\"config.xml\")"
param *.**.nic.phy80211p.decider "xmldoc(\"config.xml\")"
param *.**.nic.phy80211p.maxTXPower 100mW
param *.**.nic.phy80211p.sensitivity -94dBm
param *.**.nic.phy80211p.thermalNoise -95dBm
param *.**.nic.phy80211p.usePropagationDelay true
param *.**.nic.phy80211p.useThermalNoise true
param *.annotations.draw false
param *.connectionManager.alpha 2.0
param *.connectionManager.carrierFrequency "5.890e9 Hz"
param *.connectionManager.pMax 100mW
param *.connectionManager.sat -94dBm
param *.connectionManager.sendDirect true
param *.manager.autoShutdown true
param *.manager.commandLine "\"sumo --remote-port $port --seed $seed --configuration-file $configFile\""
param *.manager.configFile "\"./sumocfg/freeway.sumo.cfg\""
param *.manager.host "\"localhost\""
param *.manager.margin 25
param *.manager.moduleDisplayString "\"\""
param *.manager.moduleName "\"node\""
param *.manager.moduleType "\"Car\""
param *.manager.updateInterval 0.01s
param *.node[*].appl.attackStart 30s
param *.node[*].appl.attackerType 2
param *.node[*].appl.simulationDuration "60 s"
param *.node[*].appl_type "\"SimplePlatooningApp\""
param *.node[*].helper.nCars 8
param *.node[*].helper.nLanes 1
param *.node[*].helper.platoonSize 8
param *.node[*].helper_type "\"PositionHelper\""
param *.node[*].mobility.x 0
param *.node[*].mobility.y 0
param *.node[*].mobility.z 1.895
param *.node[*].prot.attackStart 30s
param *.node[*].prot.attackerType 2
param *.node[*].prot.attackingNode 3
param *.node[*].prot.beaconingInterval 0.1s
param *.node[*].prot.fakeAcc "(2 == 4)"
param *.node[*].prot.fakePos "(2 == 2)"
param *.node[*].prot.fakeSpeed "(2 == 3)"
param *.node[*].prot.maliciousAcc "-30 mpss"
param *.node[*].prot.maliciousSpeed 150kmph
param *.node[*].prot.packetSize 200
param *.node[*].prot.priority 2
param *.node[*].prot.shiftX "5 m"
param *.node[*].prot.useControllerAcceleration true
param *.node[*].protocol_type "\"SimplePlatooningBeaconing\""
param *.node[*].scenario.accHeadway 0.1s
param *.node[*].scenario.caccC1 0.5
param *.node[*].scenario.caccOmegaN "0.2 Hz"
param *.node[*].scenario.caccSpacing 20m
param *.node[*].scenario.caccXi 1
param *.node[*].scenario.controller "\"CACC\""
param *.node[*].scenario.engineTau "0.5 s"
param *.node[*].scenario.leaderHeadway 1.2s
param *.node[*].scenario.leaderOscillationFrequency "0.2 Hz"
param *.node[*].scenario.leaderSpeed 100kmph
param *.node[*].scenario.oscillationAmplitude "10 kmph"
param *.node[*].scenario.ploegH 0.5s
param *.node[*].scenario.ploegKd 0.7
param *.node[*].scenario.ploegKp 0.2
param *.node[*].scenario.startOscillating "5 s"
param *.node[*].scenario.useRealisticEngine false
param *.node[*].scenario_type "\"SinusoidalScenario\""
param *.node[*].unicast.packetLossRate 0
param *.obstacles.debug false
param *.playgroundSizeX 65000m
param *.playgroundSizeY 25000m
param *.playgroundSizeZ 50m
param *.world.use2D false
param *.world.useTorus false

vector 0  scenario.node[0].appl  distance  ETV
vector 1  scenario.node[0].appl  relativeSpeed  ETV
vector 2  scenario.node[0].appl  nodeId  ETV
vector 6  scenario.node[0].appl  acceleration  ETV
vector 7  scenario.node[0].appl  controllerAcceleration  ETV
vector 3  scenario.node[0].appl  speed  ETV
vector 4  scenario.node[0].appl  posx  ETV
vector 5  scenario.node[0].appl  posy  ETV
vector 22  scenario.node[1].appl  distance  ETV
vector 23  scenario.node[1].appl  relativeSpeed  ETV
vector 24  scenario.node[1].appl  nodeId  ETV
vector 28  scenario.node[1].appl  acceleration  ETV
vector 29  scenario.node[1].appl  controllerAcceleration  ETV
vector 25  scenario.node[1].appl  speed  ETV
vector 26  scenario.node[1].appl  posx  ETV
vector 27  scenario.node[1].appl  posy  ETV
vector 44  scenario.node[2].appl  distance  ETV
vector 45  scenario.node[2].appl  relativeSpeed  ETV
vector 46  scenario.node[2].appl  nodeId  ETV
vector 50  scenario.node[2].appl  acceleration  ETV
vector 51  scenario.node[2].appl  controllerAcceleration  ETV
vector 47  scenario.node[2].appl  speed  ETV
vector 48  scenario.node[2].appl  posx  ETV
vector 49  scenario.node[2].appl  posy  ETV
vector 66  scenario.node[3].appl  distance  ETV
vector 67  scenario.node[3].appl  relativeSpeed  ETV
vector 68  scenario.node[3].appl  nodeId  ETV
vector 72  scenario.node[3].appl  acceleration  ETV
vector 73  scenario.node[3].appl  controllerAcceleration  ETV
vector 69  scenario.node[3].appl  speed  ETV
vector 70  scenario.node[3].appl  posx  ETV
vector 71  scenario.node[3].appl  posy  ETV
vector 88  scenario.node[4].appl  distance  ETV
vector 89  scenario.node[4].appl  relativeSpeed  ETV
vector 90  scenario.node[4].appl  nodeId  ETV
vector 94  scenario.node[4].appl  acceleration  ETV
vector 95  scenario.node[4].appl  controllerAcceleration  ETV
vector 91  scenario.node[4].appl  speed  ETV
vector 92  scenario.node[4].appl  posx  ETV
vector 93  scenario.node[4].appl  posy  ETV
vector 110  scenario.node[5].appl  distance  ETV
vector 111  scenario.node[5].appl  relativeSpeed  ETV
vector 112  scenario.node[5].appl  nodeId  ETV
vector 116  scenario.node[5].appl  acceleration  ETV
vector 117  scenario.node[5].appl  controllerAcceleration  ETV
vector 113  scenario.node[5].appl  speed  ETV
vector 114  scenario.node[5].appl  posx  ETV
vector 115  scenario.node[5].appl  posy  ETV
vector 132  scenario.node[6].appl  distance  ETV
vector 133  scenario.node[6].appl  relativeSpeed  ETV
vector 134  scenario.node[6].appl  nodeId  ETV
vector 138  scenario.node[6].appl  acceleration  ETV
vector 139  scenario.node[6].appl  controllerAcceleration  ETV
vector 135  scenario.node[6].appl  speed  ETV
vector 136  scenario.node[6].appl  posx  ETV
vector 137  scenario.node[6].appl  posy  ETV
vector 154  scenario.node[7].appl  distance  ETV
vector 155  scenario.node[7].appl  relativeSpeed  ETV
vector 156  scenario.node[7].appl  nodeId  ETV
vector 160  scenario.node[7].appl  acceleration  ETV
vector 161  scenario.node[7].appl  controllerAcceleration  ETV
vector 157  scenario.node[7].appl  speed  ETV
vector 158  scenario.node[7].appl  posx  ETV
vector 159  scenario.node[7].appl  posy  ETV
vector 102  scenario.node[4].prot  frontDelay  ETV
vector 100  scenario.node[4].prot  frontDelayId  ETV
vector 35  scenario.node[1].prot  leaderDelay  ETV
vector 33  scenario.node[1].prot  leaderDelayId  ETV
vector 36  scenario.node[1].prot  frontDelay  ETV
vector 34  scenario.node[1].prot  frontDelayId  ETV
vector 57  scenario.node[2].prot  leaderDelay  ETV
vector 55  scenario.node[2].prot  leaderDelayId  ETV
vector 79  scenario.node[3].prot  leaderDelay  ETV
vector 77  scenario.node[3].prot  leaderDelayId  ETV
vector 101  scenario.node[4].prot  leaderDelay  ETV
vector 99  scenario.node[4].prot  leaderDelayId  ETV
vector 123  scenario.node[5].prot  leaderDelay  ETV
vector 121  scenario.node[5].prot  leaderDelayId  ETV
vector 145  scenario.node[6].prot  leaderDelay  ETV
vector 143  scenario.node[6].prot  leaderDelayId  ETV
vector 167  scenario.node[7].prot  leaderDelay  ETV
vector 165  scenario.node[7].prot  leaderDelayId  ETV
vector 80  scenario.node[3].prot  frontDelay  ETV
vector 78  scenario.node[3].prot  frontDelayId  ETV
vector 146  scenario.node[6].prot  frontDelay  ETV
vector 144  scenario.node[6].prot  frontDelayId  ETV
vector 58  scenario.node[2].prot  frontDelay  ETV
vector 56  scenario.node[2].prot  frontDelayId  ETV
vector 124  scenario.node[5].prot  frontDelay  ETV
vector 122  scenario.node[5].prot  frontDelayId  ETV
vector 168  scenario.node[7].prot  frontDelay  ETV
vector 166  scenario.node[7].prot  frontDelayId  ETV
vector 8  scenario.node[0].prot  nodeId  ETV
vector 9  scenario.node[0].prot  busyTime  ETV
vector 10  scenario.node[0].prot  collisions  ETV
vector 30  scenario.node[1].prot  nodeId  ETV
vector 31  scenario.node[1].prot  busyTime  ETV
vector 32  scenario.node[1].prot  collisions  ETV
vector 52  scenario.node[2].prot  nodeId  ETV
vector 53  scenario.node[2].prot  busyTime  ETV
vector 54  scenario.node[2].prot  collisions  ETV
vector 74  scenario.node[3].prot  nodeId  ETV
vector 75  scenario.node[3].prot  busyTime  ETV
vector 76  scenario.node[3].prot  collisions  ETV
vector 96  scenario.node[4].prot  nodeId  ETV
vector 97  scenario.node[4].prot  busyTime  ETV
vector 98  scenario.node[4].prot  collisions  ETV
vector 118  scenario.node[5].prot  nodeId  ETV
vector 119  scenario.node[5].prot  busyTime  ETV
vector 120  scenario.node[5].prot  collisions  ETV
vector 140  scenario.node[6].prot  nodeId  ETV
vector 141  scenario.node[6].prot  busyTime  ETV
vector 142  scenario.node[6].prot  collisions  ETV
vector 162  scenario.node[7].prot  nodeId  ETV
vector 163  scenario.node[7].prot  busyTime  ETV
vector 164  scenario.node[7].prot  collisions  ETV
7	11253 13860 232 328174 1.11 59.91 589 -1.5 1.5 -14.445974034379 993.24092368185
6	25113 18594 232 328174 1.11 59.91 589 -1.4722746794938 1.4513434175793 -12.50726914995 675.29835222675
5	43707 12081 232 328174 1.11 59.91 589 36.55 36.55 21527.95 786846.5725
4	55788 17910 232 328174 1.11 59.91 589 217.05297012302 1854.7024356655 610951.73609419 765511587.47785
3	73698 17905 232 328174 1.11 59.91 589 26.487965859734 29.742492528104 16403.83880962 457295.15275867
1	91603 9725 232 328174 1.11 59.91 589 0 0 0 0
0	101328 10314 232 328174 1.11 59.91 589 -1 -1 -589 589
2	111642 9725 232 328174 1.11 59.91 589 0 0 0 0
10	121367 859 5234 328728 2 60 59 0 0 0 0
9	122226 1155 5234 328728 2 60 59 0.023625 0.02625 1.546125 0.040523765625
8	123381 800 5234 328728 2 60 59 0 0 0 0
29	124181 17863 233 328175 1.11 59.91 589 -1.502274055613 1.5017240997091 -14.809048219146 987.50351693009
28	142044 19165 233 328175 1.11 59.91 589 -1.4793271052156 1.449106399544 -12.221345405703 673.78414342038
27	161209 12670 233 328175 1.11 59.91 589 36.55 36.55 21527.95 786846.5725
26	173879 18496 233 328175 1.11 59.91 589 193.05297012329 1830.7080685074 596798.14197551 736479975.30565
25	192375 18474 233 328175 1.11 59.91 589 26.487713449239 29.744046425688 16403.906200603 457298.04220243
23	210849 20108 233 328175 1.11 59.91 589 -0.062041785116097 0.063261405635906 0.057681708306209 1.2031950492071
22	230957 18490 233 328175 1.11 59.91 589 19.9340670704 20.123785057221 11797.5954665 236305.71833441
24	249447 10314 233 328175 1.11 59.91 589 1 1 589 589
36	259761 23696 964 328350 1.241824401662 59.941827306039 588 0.099999759794 0.100012762319 58.800002665596 5.8800005349434
35	283457 23696 964 328350 1.241824401662 59.941827306039 588 0.099999759794 0.100012762319 58.800002665596 5.8800005349434
34	307153 16114 964 328350 1.241824401662 59.941827306039 588 1 1 588 588
33	323267 16114 964 328350 1.241824401662 59.941827306039 588 1 1 588 588
32	339381 859 5235 328729 2 60 59 0 0 0 0
31	340240 1214 5235 328729 2 60 59 0.023625 0.02625 1.546125 0.040523765625
30	341454 859 5235 328729 2 60 59 1 1 59 59
51	342313 18193 234 328176 1.11 59.91 589 -1.5157394589466 1.512601067965 -15.948772188515 995.29303520635
50	360506 19170 234 328176 1.11 59.91 589 -1.4731702656803 1.4434762626166 -12.051142883145 669.67352641122
49	379676 12670 234 328176 1.11 59.91 589 36.55 36.55 21527.95 786846.5725
48	392346 18490 234 328176 1.11 59.91 589 169.05297012329 1806.7083560587 582657.14668599 708159975.78111
47	410836 18506 234 328176 1.11 59.91 589 26.489539863965 29.737355875783 16403.91571368 457295.69683502
45	429342 20337 234 328176 1.11 59.91 589 -0.017729424752147 0.015851882042782 0.11270037649987 0.060652350014018
44	449679 18474 234 328176 1.11 59.91 589 19.972823073857 20.04474409818 11784.995479786 235800.05710046
46	468153 10314 234 328176 1.11 59.91 589 2 2 1178 2356
58	478467 23711 1176 328562 1.281934122161 59.981937026255 588 0.099999759788 0.10001276258 58.800002665313 5.8800005348868
57	502178 23673 970 328356 1.241824481718 59.941827386092 588 0.099999759794 0.100012762315 58.800002665593 5.8800005349429
56	525851 16132 1176 328562 1.281934122161 59.981937026255 588 2 2 1176 2352
55	541983 16099 970 328356 1.241824481718 59.941827386092 588 2 2 1176 2352
54	558082 859 5236 328730 2 60 59 0 0 0 0
53	558941 1214 5236 328730 2 60 59 0.023625 0.02625 1.546125 0.040523765625
52	560155 859 5236 328730 2 60 59 2 2 118 236
73	561014 19092 235 328177 1.11 59.91 589 -1.497958486039 1.4963276184872 -15.539922888171 974.15225999331
72	580106 19191 235 328177 1.11 59.91 589 -1.4632764891516 1.4357843215667 -11.86813389068 660.49499361896
71	599297 12670 235 328177 1.11 59.91 589 36.55 36.55 21527.95 786846.5725
70	611967 18484 235 328177 1.11 59.91 589 145.05297775269 1782.7292498023 568524.47185983 680540151.58636
69	630451 18514 235 328177 1.11 59.91 589 26.49843618829 29.729217243037 16404.130838572 457301.88741029
67	648965 20506 235 328177 1.11 59.91 589 -0.015485116000818 0.0115388110864 -0.094613462506032 0.026680486671356
66	669471 18485 235 328177 1.11 59.91 589 19.97046126762 20.035617369158 11776.67912865 235467.3006903
68	687956 10314 235 328177 1.11 59.91 589 3 3 1767 5301
80	698270 23689 1040 328420 1.262751561773 59.962754466075 588 0.099999759792 0.100012763184 58.800002665521 5.8800005349284
79	721959 23689 976 328362 1.241824561773 59.941827466076 588 0.099999759793 0.100012762315 58.800002665522 5.8800005349287
78	745648 16102 1040 328420 1.262751561773 59.962754466075 588 3 3 1764 5292
77	761750 16114 976 328362 1.241824561773 59.941827466076 588 3 3 1764 5292
76	777864 859 5237 328731 2 60 59 0 0 0 0
75	778723 1214 5237 328731 2 60 59 0.023625 0.02625 1.546125 0.040523765625
74	779937 859 5237 328731 2 60 59 3 3 177 531
95	780796 19053 236 328178 1.11 59.91 589 -1.4916742932441 1.4916957537291 -15.550098998362 958.9231333281
94	799849 19163 236 328178 1.11 59.91 589 -1.4604041392115 1.4323587542332 -11.636499935075 657.36405779704
93	819012 12670 236 328178 1.11 59.91 589 36.55 36.55 21527.95 786846.5725
92	831682 18499 236 328178 1.11 59.91 589 121.05297775269 1758.7593155415 554389.29946443 653592881.69743
91	850181 18512 236 328178 1.11 59.91 589 26.502726673021 29.727218790722 16404.440026924 457317.0087766
89	868693 20162 236 328178 1.11 59.91 589 -0.026047778468328 0.025125781561488 -0.19050701357539 0.19626740305872
88	888855 18478 236 328178 1.11 59.91 589 19.957670131377 20.053884475238 11779.178579167 235567.47746632
90	907333 10314 236 328178 1.11 59.91 589 4 4 2356 9424
102	917647 24274 904 328284 1.240527161496 59.940530065889 588 0.09999975978 0.100012763147 58.800002665612 5.8800005349466
101	941921 24288 982 328368 1.241824641829 59.941827546029 588 0.099999759794 0.100012762309 58.800002665419 5.8800005349081
100	966209 16694 904 328284 1.240527161496 59.940530065889 588 4 4 2352 9408
99	982903 16110 982 328368 1.241824641829 59.941827546029 588 4 4 2352 9408
98	999013 859 5238 328732 2 60 59 0 0 0 0
97	999872 1214 5238 328732 2 60 59 0.023625 0.02625 1.546125 0.040523765625
96	1001086 859 5238 328732 2 60 59 4 4 236 944
117	1001945 19688 237 328179 1.11 59.91 589 -1.497882336436 1.49793736079 -15.573912554986 972.57495837184
116	1021633 19771 237 328179 1.11 59.91 589 -1.4541166680054 1.4282739884976 -11.701851880489 653.5442102493
115	1041404 13259 237 328179 1.11 59.91 589 36.55 36.55 21527.95 786846.5725
114	1054663 19089 237 328179 1.11 59.91 589 97.052977752686 1734.7474285752 540255.92856622 627327497.81104
113	1073752 19093 237 328179 1.11 59.91 589 26.505671398552 29.721055279944 16404.318623553 457307.83919929
111	1092845 20699 237 328179 1.11 59.91 589 -0.033954328728427 0.03410772022762 0.23776837081266 0.36339076680581
110	1113544 19061 237 328179 1.11 59.91 589 19.974351194324 20.024425897491 11777.368470144 235494.83708711
112	1132605 10903 237 328179 1.11 59.91 589 5 5 2945 14725
124	1143508 24298 1242 328628 1.287391362327 59.987394266283 588 0.099999759784 0.100012762958 58.800002665175 5.8800005348592
123	1167806 24281 988 328374 1.241824721884 59.941827626125 588 0.099999759791 0.100012762314 58.80000266546 5.8800005349163
122	1192087 16710 1242 328628 1.287391362327 59.987394266283 588 5 5 2940 14700
121	1208797 16706 988 328374 1.241824721884 59.941827626125 588 5 5 2940 14700
120	1225503 918 5239 328733 2 60 59 0 0 0 0
119	1226421 1273 5239 328733 2 60 59 0.023625 0.02625 1.546125 0.040523765625
118	1227694 918 5239 328733 2 60 59 5 5 295 1475
139	1228612 19678 238 328180 1.11 59.91 589 -1.4890055531617 1.4891292916632 -15.450975150598 953.17509018537
138	1248290 19761 238 328180 1.11 59.91 589 -1.4486611853673 1.4235063636349 -11.665356533229 647.39786183122
137	1268051 13259 238 328180 1.11 59.91 589 36.55 36.55 21527.95 786846.5725
136	1281310 19070 238 328180 1.11 59.91 589 73.052977752686 1710.7461388793 526121.77445524 601739225.00649
135	1300380 19082 238 328180 1.11 59.91 589 26.511944557647 29.712970489929 16404.306972556 457303.43250481
133	1319462 20778 238 328180 1.11 59.91 589 -0.018947290086018 0.018894224975501 0.12866951563247 0.10812242340223
132	1340240 19075 238 328180 1.11 59.91 589 19.9872695275 20.013796526174 11778.153877968 235526.18033609
134	1359315 10903 238 328180 1.11 59.91 589 6 6 3534 21204
146	1370218 24281 1106 328486 1.266713801939 59.966716706181 588 0.099999759788 0.100012762268 58.800002665461 5.8800005349165
145	1394499 24294 994 328380 1.241824801939 59.941827706184 588 0.099999759788 0.100012762316 58.800002665464 5.8800005349171
144	1418793 16695 1106 328486 1.266713801939 59.966716706181 588 6 6 3528 21168
143	1435488 16705 994 328380 1.241824801939 59.941827706184 588 6 6 3528 21168
142	1452193 918 5240 328734 2 60 59 0 0 0 0
141	1453111 1273 5240 328734 2 60 59 0.023625 0.02625 1.546125 0.040523765625
140	1454384 918 5240 328734 2 60 59 6 6 354 2124
161	1455302 19679 239 328181 1.11 59.91 589 -1.4963545123757 1.4965424064324 -15.503020286781 972.37101268234
160	1474981 19771 239 328181 1.11 59.91 589 -1.4519455799455 1.428140861973 -11.799939584035 653.8820343315
159	1494752 13259 239 328181 1.11 59.91 589 36.55 36.55 21527.95 786846.5725
158	1508011 19094 239 328181 1.11 59.91 589 49.052977752686 1686.7403126702 511987.61006492 576829063.22416
157	1527105 19081 239 328181 1.11 59.91 589 26.505053347553 29.717530243215 16404.243798684 457303.79567301
155	1546186 20707 239 328181 1.11 59.91 589 -0.031834543633973 0.034197069494056 0.17982743722929 0.2784252892022
154	1566893 19063 239 328181 1.11 59.91 589 19.977402936061 20.020493095587 11778.163126839 235526.59137537
156	1585956 10903 239 328181 1.11 59.91 589 7 7 4123 28861
168	1596859 24314 1308 328694 1.289468522438 59.989471426419 588 0.099999759782 0.100012762609 58.8000026652 5.8800005348642
167	1621173 24280 1000 328386 1.241824881995 59.94182778626 588 0.099999759789 0.100012762317 58.800002665484 5.8800005349211
166	1645453 16716 1308 328694 1.289468522438 59.989471426419 588 7 7 4116 28812
165	1662169 16701 1000 328386 1.241824881995 59.94182778626 588 7 7 4116 28812
164	1678870 918 5241 328735 2 60 59 0 0 0 0
163	1679788 1273 5241 328735 2 60 59 0.023625 0.02625 1.546125 0.040523765625
162	1681061 918 5241 328735 2 60 59 7 7 413 2891
