file 1683160 1512140648                                         
version 2
run SinusoidalPosInjectionAttack-148-20171201-16:03:37-12201
attr CACCSpacing 20
attr attackAcc -30
attr attackPos 7
attr attackSpeed 150
attr attackStart 30
attr attacker 2
attr beaconInterval 0.1
attr configname SinusoidalPosInjectionAttack
attr controller 1
attr datetime 20171201-16:03:37
attr experiment SinusoidalPosInjectionAttack
attr fakeAcc "(2 == 4)"
attr fakePos "(2 == 2)"
attr fakeSpeed "(2 == 3)"
attr inifile omnetpp_148.ini
attr iterationvars "$attacker=2, $attackSpeed=150, $attackPos=7, $attackAcc=-30, $leaderSpeed=100, $controller=1, $CACCSpacing=20, $sController=\"CACC\", $attackStart=30, $0=20, $1=0, $nCars=8, $platoonSize=8, $nLanes=1, $beaconInterval=0.1, $priority=2, $packetSize=200, $ploegH=0.5, $leaderHeadway=1.2, $fakeSpeed=(2 == 3), $fakeAcc=(2 == 4), $fakePos=(2 == 2)"
attr iterationvarsf attacker=2,attackSpeed=150,attackPos=7,attackAcc=-30,leaderSpeed=100,controller=1,CACCSpacing=20,sController=CACC,attackStart=30,20,0,nCars=8,platoonSize=8,nLanes=1,beaconInterval=0.1,priority=2,packetSize=200,ploegH=0.5,leaderHeadway=1.2,fakeSpeed=(2_==_3),fakeAcc=(2_==_4),fakePos=(2_==_2)-
attr leaderHeadway 1.2
attr leaderSpeed 100
attr measurement "$attacker=2, $attackSpeed=150, $attackPos=7, $attackAcc=-30, $leaderSpeed=100, $controller=1, $CACCSpacing=20, $sController=\"CACC\", $attackStart=30, $0=20, $1=0, $nCars=8, $platoonSize=8, $nLanes=1, $beaconInterval=0.1, $priority=2, $packetSize=200, $ploegH=0.5, $leaderHeadway=1.2, $fakeSpeed=(2 == 3), $fakeAcc=(2 == 4), $fakePos=(2 == 2)"
attr nCars 8
attr nLanes 1
attr network scenario
attr packetSize 200
attr platoonSize 8
attr ploegH 0.5
attr priority 2
attr processid 12201
attr repetition 3
attr replication #3
attr resultdir results
attr runnumber 148
attr sController "\"CACC\""
attr seedset 3
param **.coreDebug false
param **.debug false
param **.headway 0.1s
param **.numberOfCars 8
param **.numberOfCarsPerPlatoon 8
param **.numberOfLanes 1
param **.numericController 1
param **.traffic.nCars 8
param **.traffic.nLanes 1
param **.traffic.platoonInsertDistance 20m
param **.traffic.platoonInsertHeadway 0s
param **.traffic.platoonInsertSpeed 100kmph
param **.traffic.platoonInsertTime "1 s"
param **.traffic.platoonLeaderHeadway 1.2s
param **.traffic.platoonSize 8
param **.traffic.platooningVType "\"vtypeauto\""
param **.traffic_type "\"PlatoonsTrafficManager\""
param *.**.nic.mac1609_4.bitrate 6Mbps
param *.**.nic.mac1609_4.txPower 100mW
param *.**.nic.mac1609_4.useServiceChannel false
param *.**.nic.phy80211p.analogueModels "xmldoc(\"config.xml\")"
param *.**.nic.phy80211p.decider "xmldoc(\"config.xml\")"
param *.**.nic.phy80211p.maxTXPower 100mW
param *.**.nic.phy80211p.sensitivity -94dBm
param *.**.nic.phy80211p.thermalNoise -95dBm
param *.**.nic.phy80211p.usePropagationDelay true
param *.**.nic.phy80211p.useThermalNoise true
param *.annotations.draw false
param *.connectionManager.alpha 2.0
param *.connectionManager.carrierFrequency "5.890e9 Hz"
param *.connectionManager.pMax 100mW
param *.connectionManager.sat -94dBm
param *.connectionManager.sendDirect true
param *.manager.autoShutdown true
param *.manager.commandLine "\"sumo --remote-port $port --seed $seed --configuration-file $configFile\""
param *.manager.configFile "\"./sumocfg/freeway.sumo.cfg\""
param *.manager.host "\"localhost\""
param *.manager.margin 25
param *.manager.moduleDisplayString "\"\""
param *.manager.moduleName "\"node\""
param *.manager.moduleType "\"Car\""
param *.manager.updateInterval 0.01s
param *.node[*].appl.attackStart 30s
param *.node[*].appl.attackerType 2
param *.node[*].appl.simulationDuration "60 s"
param *.node[*].appl_type "\"SimplePlatooningApp\""
param *.node[*].helper.nCars 8
param *.node[*].helper.nLanes 1
param *.node[*].helper.platoonSize 8
param *.node[*].helper_type "\"PositionHelper\""
param *.node[*].mobility.x 0
param *.node[*].mobility.y 0
param *.node[*].mobility.z 1.895
param *.node[*].prot.attackStart 30s
param *.node[*].prot.attackerType 2
param *.node[*].prot.attackingNode 3
param *.node[*].prot.beaconingInterval 0.1s
param *.node[*].prot.fakeAcc "(2 == 4)"
param *.node[*].prot.fakePos "(2 == 2)"
param *.node[*].prot.fakeSpeed "(2 == 3)"
param *.node[*].prot.maliciousAcc "-30 mpss"
param *.node[*].prot.maliciousSpeed 150kmph
param *.node[*].prot.packetSize 200
param *.node[*].prot.priority 2
param *.node[*].prot.shiftX "7 m"
param *.node[*].prot.useControllerAcceleration true
param *.node[*].protocol_type "\"SimplePlatooningBeaconing\""
param *.node[*].scenario.accHeadway 0.1s
param *.node[*].scenario.caccC1 0.5
param *.node[*].scenario.caccOmegaN "0.2 Hz"
param *.node[*].scenario.caccSpacing 20m
param *.node[*].scenario.caccXi 1
param *.node[*].scenario.controller "\"CACC\""
param *.node[*].scenario.engineTau "0.5 s"
param *.node[*].scenario.leaderHeadway 1.2s
param *.node[*].scenario.leaderSpeed 100kmph
param *.node[*].scenario.ploegH 0.5s
param *.node[*].scenario.ploegKd 0.7
param *.node[*].scenario.ploegKp 0.2
param *.node[*].scenario.useRealisticEngine false
param *.node[*].scenario_type "\"SinusoidalScenario\""
param *.node[*].unicast.packetLossRate 0
param *.obstacles.debug false
param *.playgroundSizeX 65000m
param *.playgroundSizeY 25000m
param *.playgroundSizeZ 50m
param *.world.use2D false
param *.world.useTorus false

vector 0  scenario.node[0].appl  distance  ETV
vector 1  scenario.node[0].appl  relativeSpeed  ETV
vector 2  scenario.node[0].appl  nodeId  ETV
vector 6  scenario.node[0].appl  acceleration  ETV
vector 7  scenario.node[0].appl  controllerAcceleration  ETV
vector 3  scenario.node[0].appl  speed  ETV
vector 4  scenario.node[0].appl  posx  ETV
vector 5  scenario.node[0].appl  posy  ETV
vector 22  scenario.node[1].appl  distance  ETV
vector 23  scenario.node[1].appl  relativeSpeed  ETV
vector 24  scenario.node[1].appl  nodeId  ETV
vector 28  scenario.node[1].appl  acceleration  ETV
vector 29  scenario.node[1].appl  controllerAcceleration  ETV
vector 25  scenario.node[1].appl  speed  ETV
vector 26  scenario.node[1].appl  posx  ETV
vector 27  scenario.node[1].appl  posy  ETV
vector 44  scenario.node[2].appl  distance  ETV
vector 45  scenario.node[2].appl  relativeSpeed  ETV
vector 46  scenario.node[2].appl  nodeId  ETV
vector 50  scenario.node[2].appl  acceleration  ETV
vector 51  scenario.node[2].appl  controllerAcceleration  ETV
vector 47  scenario.node[2].appl  speed  ETV
vector 48  scenario.node[2].appl  posx  ETV
vector 49  scenario.node[2].appl  posy  ETV
vector 66  scenario.node[3].appl  distance  ETV
vector 67  scenario.node[3].appl  relativeSpeed  ETV
vector 68  scenario.node[3].appl  nodeId  ETV
vector 72  scenario.node[3].appl  acceleration  ETV
vector 73  scenario.node[3].appl  controllerAcceleration  ETV
vector 69  scenario.node[3].appl  speed  ETV
vector 70  scenario.node[3].appl  posx  ETV
vector 71  scenario.node[3].appl  posy  ETV
vector 88  scenario.node[4].appl  distance  ETV
vector 89  scenario.node[4].appl  relativeSpeed  ETV
vector 90  scenario.node[4].appl  nodeId  ETV
vector 94  scenario.node[4].appl  acceleration  ETV
vector 95  scenario.node[4].appl  controllerAcceleration  ETV
vector 91  scenario.node[4].appl  speed  ETV
vector 92  scenario.node[4].appl  posx  ETV
vector 93  scenario.node[4].appl  posy  ETV
vector 110  scenario.node[5].appl  distance  ETV
vector 111  scenario.node[5].appl  relativeSpeed  ETV
vector 112  scenario.node[5].appl  nodeId  ETV
vector 116  scenario.node[5].appl  acceleration  ETV
vector 117  scenario.node[5].appl  controllerAcceleration  ETV
vector 113  scenario.node[5].appl  speed  ETV
vector 114  scenario.node[5].appl  posx  ETV
vector 115  scenario.node[5].appl  posy  ETV
vector 132  scenario.node[6].appl  distance  ETV
vector 133  scenario.node[6].appl  relativeSpeed  ETV
vector 134  scenario.node[6].appl  nodeId  ETV
vector 138  scenario.node[6].appl  acceleration  ETV
vector 139  scenario.node[6].appl  controllerAcceleration  ETV
vector 135  scenario.node[6].appl  speed  ETV
vector 136  scenario.node[6].appl  posx  ETV
vector 137  scenario.node[6].appl  posy  ETV
vector 154  scenario.node[7].appl  distance  ETV
vector 155  scenario.node[7].appl  relativeSpeed  ETV
vector 156  scenario.node[7].appl  nodeId  ETV
vector 160  scenario.node[7].appl  acceleration  ETV
vector 161  scenario.node[7].appl  controllerAcceleration  ETV
vector 157  scenario.node[7].appl  speed  ETV
vector 158  scenario.node[7].appl  posx  ETV
vector 159  scenario.node[7].appl  posy  ETV
vector 35  scenario.node[1].prot  leaderDelay  ETV
vector 33  scenario.node[1].prot  leaderDelayId  ETV
vector 36  scenario.node[1].prot  frontDelay  ETV
vector 34  scenario.node[1].prot  frontDelayId  ETV
vector 57  scenario.node[2].prot  leaderDelay  ETV
vector 55  scenario.node[2].prot  leaderDelayId  ETV
vector 79  scenario.node[3].prot  leaderDelay  ETV
vector 77  scenario.node[3].prot  leaderDelayId  ETV
vector 101  scenario.node[4].prot  leaderDelay  ETV
vector 99  scenario.node[4].prot  leaderDelayId  ETV
vector 123  scenario.node[5].prot  leaderDelay  ETV
vector 121  scenario.node[5].prot  leaderDelayId  ETV
vector 145  scenario.node[6].prot  leaderDelay  ETV
vector 143  scenario.node[6].prot  leaderDelayId  ETV
vector 167  scenario.node[7].prot  leaderDelay  ETV
vector 165  scenario.node[7].prot  leaderDelayId  ETV
vector 168  scenario.node[7].prot  frontDelay  ETV
vector 166  scenario.node[7].prot  frontDelayId  ETV
vector 58  scenario.node[2].prot  frontDelay  ETV
vector 56  scenario.node[2].prot  frontDelayId  ETV
vector 124  scenario.node[5].prot  frontDelay  ETV
vector 122  scenario.node[5].prot  frontDelayId  ETV
vector 80  scenario.node[3].prot  frontDelay  ETV
vector 78  scenario.node[3].prot  frontDelayId  ETV
vector 146  scenario.node[6].prot  frontDelay  ETV
vector 144  scenario.node[6].prot  frontDelayId  ETV
vector 102  scenario.node[4].prot  frontDelay  ETV
vector 100  scenario.node[4].prot  frontDelayId  ETV
vector 8  scenario.node[0].prot  nodeId  ETV
vector 9  scenario.node[0].prot  busyTime  ETV
vector 10  scenario.node[0].prot  collisions  ETV
vector 30  scenario.node[1].prot  nodeId  ETV
vector 31  scenario.node[1].prot  busyTime  ETV
vector 32  scenario.node[1].prot  collisions  ETV
vector 52  scenario.node[2].prot  nodeId  ETV
vector 53  scenario.node[2].prot  busyTime  ETV
vector 54  scenario.node[2].prot  collisions  ETV
vector 74  scenario.node[3].prot  nodeId  ETV
vector 75  scenario.node[3].prot  busyTime  ETV
vector 76  scenario.node[3].prot  collisions  ETV
vector 96  scenario.node[4].prot  nodeId  ETV
vector 97  scenario.node[4].prot  busyTime  ETV
vector 98  scenario.node[4].prot  collisions  ETV
vector 118  scenario.node[5].prot  nodeId  ETV
vector 119  scenario.node[5].prot  busyTime  ETV
vector 120  scenario.node[5].prot  collisions  ETV
vector 140  scenario.node[6].prot  nodeId  ETV
vector 141  scenario.node[6].prot  busyTime  ETV
vector 142  scenario.node[6].prot  collisions  ETV
vector 162  scenario.node[7].prot  nodeId  ETV
vector 163  scenario.node[7].prot  busyTime  ETV
vector 164  scenario.node[7].prot  collisions  ETV
7	11091 13860 232 328174 1.11 59.91 589 -1.5 1.5 -14.445974034379 993.24092368185
6	24951 18594 232 328174 1.11 59.91 589 -1.4722746794938 1.4513434175793 -12.50726914995 675.29835222675
5	43545 12081 232 328174 1.11 59.91 589 36.55 36.55 21527.95 786846.5725
4	55626 17921 232 328174 1.11 59.91 589 210.1237403867 1847.7732059291 606870.41977949 757073017.98182
3	73547 17905 232 328174 1.11 59.91 589 26.487965859734 29.742492528104 16403.83880962 457295.15275867
1	91452 9725 232 328174 1.11 59.91 589 0 0 0 0
0	101177 10314 232 328174 1.11 59.91 589 -1 -1 -589 589
2	111491 9725 232 328174 1.11 59.91 589 0 0 0 0
10	121216 858 5056 328550 2 60 59 0 0 0 0
9	122074 1557 5056 328550 2 60 59 0.022755747372 0.026262189362 1.545260111203 0.040483678769272
8	123631 799 5056 328550 2 60 59 0 0 0 0
29	124430 17091 233 328175 1.11 59.91 589 -1.5201885305329 1.5215379202346 -16.621674185581 995.58727585757
28	141521 19173 233 328175 1.11 59.91 589 -1.4845166976844 1.4492363479558 -12.160484493321 675.58506012385
27	160694 12670 233 328175 1.11 59.91 589 36.55 36.55 21527.95 786846.5725
26	173364 18503 233 328175 1.11 59.91 589 186.12374038696 1823.718689474 592677.43018533 728144009.97347
25	191867 18505 233 328175 1.11 59.91 589 26.48258984786 29.73823345156 16403.309238542 457265.69208542
23	210372 20104 233 328175 1.11 59.91 589 -0.085666453974444 0.09234661028168 0.65464376923376 2.4329174921465
22	230476 18509 233 328175 1.11 59.91 589 19.942679175015 20.230457319092 11836.979002739 237887.94077277
24	248985 10314 233 328175 1.11 59.91 589 1 1 589 589
36	259299 23670 836 328222 1.269559161495 59.969555367581 588 0.099987080745 0.100000084633 58.799996287526 5.8799992581766
35	282969 23670 836 328222 1.269559161495 59.969555367581 588 0.099987080745 0.100000084633 58.799996287526 5.8799992581766
34	306639 16112 836 328222 1.269559161495 59.969555367581 588 1 1 588 588
33	322751 16112 836 328222 1.269559161495 59.969555367581 588 1 1 588 588
32	338863 858 5057 328551 2 60 59 0 0 0 0
31	339721 1611 5057 328551 2 60 59 0.022755827428 0.026262189695 1.54526019143 0.040483682421747
30	341332 858 5057 328551 2 60 59 1 1 59 59
51	342190 16926 234 328176 1.11 59.91 589 -1.5268714797433 1.5218527223985 -17.317403538713 996.91294511836
50	359116 19212 234 328176 1.11 59.91 589 -1.4757144530289 1.4406976854907 -11.958325661864 669.52166393141
49	378328 12670 234 328176 1.11 59.91 589 36.55 36.55 21527.95 786846.5725
48	390998 18502 234 328176 1.11 59.91 589 162.12374038696 1799.668266186 578516.28870081 699974146.43172
47	409500 18484 234 328176 1.11 59.91 589 26.486567370713 29.731244925024 16402.810619082 457233.59198981
45	427984 20599 234 328176 1.11 59.91 589 -0.0098541922603808 0.013218816456234 0.62022430506676 0.019279111717616
44	448583 18489 234 328176 1.11 59.91 589 19.996915730618 20.081402683001 11805.131512136 236606.675136
46	467072 10314 234 328176 1.11 59.91 589 2 2 1178 2356
58	477386 23678 1046 328426 1.299191202215 59.999187408475 588 0.099987082375 0.100000084645 58.7999962877 5.8799992582113
57	501064 23656 842 328228 1.269559241551 59.969555447802 588 0.099987080748 0.100000084634 58.799996287691 5.8799992582096
56	524720 16133 1046 328426 1.299191202215 59.999187408475 588 2 2 1176 2352
55	540853 16121 842 328228 1.269559241551 59.969555447802 588 2 2 1176 2352
54	556974 858 5058 328552 2 60 59 0 0 0 0
53	557832 1612 5058 328552 2 60 59 0.022755907483 0.026262189765 1.54526027165 0.040483686073856
52	559444 858 5058 328552 2 60 59 2 2 118 236
73	560302 19029 235 328177 1.11 59.91 589 -1.4873962137024 1.4906490651251 -15.470227343503 941.16499599315
72	579331 19153 235 328177 1.11 59.91 589 -1.462903729573 1.4324081195152 -11.647621772741 659.58246819119
71	598484 12670 235 328177 1.11 59.91 589 36.55 36.55 21527.95 786846.5725
70	611154 18497 235 328177 1.11 59.91 589 138.12373275757 1775.7071547955 564388.21030798 672562067.63337
69	629651 18476 235 328177 1.11 59.91 589 26.497257204844 29.722404727259 16403.210300697 457249.46486811
67	648127 20140 235 328177 1.11 59.91 589 -0.037916123784164 0.029305426055323 -0.28009835907558 0.23648667304416
66	668267 18487 235 328177 1.11 59.91 589 19.934505806172 20.063152462656 11772.086386459 235284.02212579
68	686754 10314 235 328177 1.11 59.91 589 3 3 1767 5301
80	697068 23658 1180 328569 1.300212602492 60.000208808268 588 0.099987080261 0.100000084647 58.799996287216 5.8799992581146
79	720726 23667 848 328234 1.269559321606 59.969555527722 588 0.099987080752 0.100000084634 58.799996287556 5.8799992581826
78	744393 16125 1180 328569 1.300212602492 60.000208808268 588 3 3 1764 5292
77	760518 16122 848 328234 1.269559321606 59.969555527722 588 3 3 1764 5292
76	776640 858 5059 328553 2 60 59 0 0 0 0
75	777498 1615 5059 328553 2 60 59 0.022754827428 0.026262189643 1.545259191732 0.040483636926942
74	779113 858 5059 328553 2 60 59 3 3 177 531
95	779971 19036 236 328178 1.11 59.91 589 -1.4832319681992 1.4846635724497 -15.381773515773 925.87419196625
94	799007 19151 236 328178 1.11 59.91 589 -1.4535830310592 1.425521776692 -11.487070969351 650.84130322832
93	818158 12670 236 328178 1.11 59.91 589 36.55 36.55 21527.95 786846.5725
92	830828 18505 236 328178 1.11 59.91 589 114.12373275757 1751.7165311329 550255.60790287 645818132.62216
91	849333 18490 236 328178 1.11 59.91 589 26.507337862403 29.71189911739 16403.3097937 457249.63120168
89	867823 20591 236 328178 1.11 59.91 589 -0.012670728228461 0.010595947067131 0.016983215287812 0.01728758873302
88	888414 18469 236 328178 1.11 59.91 589 19.97019422231 20.029757230516 11776.60439497 235464.29072137
90	906883 10314 236 328178 1.11 59.91 589 4 4 2356 9424
102	917197 24250 1312 328707 1.306018002769 60.006066208444 588 0.099909080037 0.100091084508 58.799983287115 5.8799977885332
101	941447 24260 854 328240 1.269559401662 59.969555607744 588 0.099987080753 0.100000084636 58.799996287522 5.8799992581758
100	965707 16708 1312 328707 1.306018002769 60.006066208444 588 4 4 2352 9408
99	982415 16118 854 328240 1.269559401662 59.969555607744 588 4 4 2352 9408
98	998533 858 5060 328554 2 60 59 0 0 0 0
97	999391 1610 5060 328554 2 60 59 0.022755747372 0.026262189601 1.545260111712 0.040483678796009
96	1001001 858 5060 328554 2 60 59 4 4 236 944
117	1001859 19642 237 328179 1.11 59.91 589 -1.5013449387191 1.5026796583025 -15.533144997525 963.99884262807
116	1021501 19748 237 328179 1.11 59.91 589 -1.4475786628008 1.4215401488283 -11.448847963335 645.28488434
115	1041249 13259 237 328179 1.11 59.91 589 36.55 36.55 21527.95 786846.5725
114	1054508 19099 237 328179 1.11 59.91 589 90.123736572266 1727.715075516 536123.01185108 619752762.42781
113	1073607 19078 237 328179 1.11 59.91 589 26.512921989852 29.704009596868 16403.296574976 457245.53652606
111	1092685 20768 237 328179 1.11 59.91 589 -0.01764530201217 0.017660650194262 0.12808943338587 0.087058042561934
110	1113453 19086 237 328179 1.11 59.91 589 19.981180553658 20.014445358085 11776.59578742 235463.88628828
112	1132539 10903 237 328179 1.11 59.91 589 5 5 2945 14725
124	1143442 24241 1112 328498 1.299591442381 59.999600648471 588 0.099987080523 0.100000084649 58.80000928753 5.8800018580105
123	1167683 24259 860 328246 1.269559481717 59.969555687803 588 0.099987080751 0.100000084639 58.799996287526 5.8799992581766
122	1191942 16699 1112 328498 1.299591442381 59.999600648471 588 5 5 2940 14700
121	1208641 16706 860 328246 1.269559481717 59.969555687803 588 5 5 2940 14700
120	1225347 917 5061 328555 2 60 59 0 0 0 0
119	1226264 1673 5061 328555 2 60 59 0.022754667317 0.026262189611 1.545259031653 0.040483629642048
118	1227937 917 5061 328555 2 60 59 5 5 295 1475
139	1228854 19622 238 328180 1.11 59.91 589 -1.4835635201916 1.4845553064095 -15.385541125478 933.81376235311
138	1248476 19745 238 328180 1.11 59.91 589 -1.4515357144926 1.4280786295878 -11.662717959928 654.24002140601
137	1268221 13259 238 328180 1.11 59.91 589 36.55 36.55 21527.95 786846.5725
136	1281480 19078 238 328180 1.11 59.91 589 66.123736572266 1703.7013599413 521990.33695812 594365418.38344
135	1300558 19083 238 328180 1.11 59.91 589 26.502683061856 29.71058107327 16403.15163343 457242.7518135
133	1319641 20670 238 328180 1.11 59.91 589 -0.042667072968314 0.045486158174484 0.25943002558186 0.49394972918243
132	1340311 19043 238 328180 1.11 59.91 589 19.964643175474 20.031055657003 11776.671994122 235467.05476656
134	1359354 10903 238 328180 1.11 59.91 589 6 6 3534 21204
146	1370257 24259 1249 328644 1.305604842658 60.005614048454 588 0.099987081777 0.100000084654 58.800009287236 5.8800018579517
145	1394516 24250 866 328252 1.269559561772 59.969555767908 588 0.099987080748 0.100000084639 58.799996287576 5.8799992581866
144	1418766 16716 1249 328644 1.305604842658 60.005614048454 588 6 6 3528 21168
143	1435482 16703 866 328252 1.269559561772 59.969555767908 588 6 6 3528 21168
142	1452185 917 5062 328556 2 60 59 0 0 0 0
141	1453102 1675 5062 328556 2 60 59 0.022755587261 0.026262189691 1.545259951546 0.040483671506262
140	1454777 917 5062 328556 2 60 59 6 6 354 2124
161	1455694 19530 239 328181 1.11 59.91 589 -1.5023459447897 1.5016782673484 -15.588149411861 972.59531407101
160	1475224 19761 239 328181 1.11 59.91 589 -1.4499547005617 1.4257541616399 -11.568043381016 650.68461878046
159	1494985 13259 239 328181 1.11 59.91 589 36.55 36.55 21527.95 786846.5725
158	1508244 19082 239 328181 1.11 59.91 589 42.123735618591 1679.7137598352 507857.45476499 569656574.43694
157	1527326 19083 239 328181 1.11 59.91 589 26.507120799281 29.707520482332 16403.279164015 457247.7471676
155	1546409 21302 239 328181 1.11 59.91 589 -0.0047267571242315 0.0041885712206557 -0.010903405128367 0.0033573901990341
154	1567711 19095 239 328181 1.11 59.91 589 19.975691002116 20.018772038188 11776.884743749 235475.46118046
156	1586806 10903 239 328181 1.11 59.91 589 7 7 4123 28861
168	1597709 24266 980 328360 1.292108801938 59.992105007944 588 0.09998708104 0.100000084639 58.799996287446 5.8799992581607
167	1621975 24249 872 328258 1.269559641828 59.96955584792 588 0.09998708075 0.100000084639 58.799996287532 5.8799992581778
166	1646224 16717 980 328360 1.292108801938 59.992105007944 588 7 7 4116 28812
165	1662941 16712 872 328258 1.269559641828 59.96955584792 588 7 7 4116 28812
164	1679653 917 5063 328557 2 60 59 0 0 0 0
163	1680570 1673 5063 328557 2 60 59 0.022755507206 0.026262189656 1.545259871535 0.040483667865178
162	1682243 917 5063 328557 2 60 59 7 7 413 2891
