file 1681978 1501692322                                         
version 2
run SinusoidalPosInjectionAttack-287-20170802-18:44:49-119582
attr CACCSpacing 20
attr attackAcc -30
attr attackPos 11
attr attackSpeed 150
attr attackStart 30
attr attacker 2
attr beaconInterval 0.1
attr configname SinusoidalPosInjectionAttack
attr controller 1
attr datetime 20170802-18:44:49
attr experiment SinusoidalPosInjectionAttack
attr fakeAcc "(2 == 4)"
attr fakePos "(2 == 2)"
attr fakeSpeed "(2 == 3)"
attr inifile omnetpp_287.ini
attr iterationvars "$attacker=2, $attackSpeed=150, $attackPos=11, $attackAcc=-30, $leaderSpeed=150, $controller=1, $CACCSpacing=20, $sController=\"CACC\", $attackStart=30, $0=20, $1=0, $nCars=8, $platoonSize=8, $nLanes=1, $beaconInterval=0.1, $priority=2, $packetSize=200, $ploegH=0.5, $leaderHeadway=1.2, $fakeSpeed=(2 == 3), $fakeAcc=(2 == 4), $fakePos=(2 == 2)"
attr iterationvarsf attacker=2,attackSpeed=150,attackPos=11,attackAcc=-30,leaderSpeed=150,controller=1,CACCSpacing=20,sController=CACC,attackStart=30,20,0,nCars=8,platoonSize=8,nLanes=1,beaconInterval=0.1,priority=2,packetSize=200,ploegH=0.5,leaderHeadway=1.2,fakeSpeed=(2_==_3),fakeAcc=(2_==_4),fakePos=(2_==_2)-
attr leaderHeadway 1.2
attr leaderSpeed 150
attr measurement "$attacker=2, $attackSpeed=150, $attackPos=11, $attackAcc=-30, $leaderSpeed=150, $controller=1, $CACCSpacing=20, $sController=\"CACC\", $attackStart=30, $0=20, $1=0, $nCars=8, $platoonSize=8, $nLanes=1, $beaconInterval=0.1, $priority=2, $packetSize=200, $ploegH=0.5, $leaderHeadway=1.2, $fakeSpeed=(2 == 3), $fakeAcc=(2 == 4), $fakePos=(2 == 2)"
attr nCars 8
attr nLanes 1
attr network scenario
attr packetSize 200
attr platoonSize 8
attr ploegH 0.5
attr priority 2
attr processid 119582
attr repetition 2
attr replication #2
attr resultdir results
attr runnumber 287
attr sController "\"CACC\""
attr seedset 2
param **.coreDebug false
param **.debug false
param **.headway 0.1s
param **.numberOfCars 8
param **.numberOfCarsPerPlatoon 8
param **.numberOfLanes 1
param **.numericController 1
param **.traffic.nCars 8
param **.traffic.nLanes 1
param **.traffic.platoonInsertDistance 20m
param **.traffic.platoonInsertHeadway 0s
param **.traffic.platoonInsertSpeed 150kmph
param **.traffic.platoonInsertTime "1 s"
param **.traffic.platoonLeaderHeadway 1.2s
param **.traffic.platoonSize 8
param **.traffic.platooningVType "\"vtypeauto\""
param **.traffic_type "\"PlatoonsTrafficManager\""
param *.**.nic.mac1609_4.bitrate 6Mbps
param *.**.nic.mac1609_4.txPower 100mW
param *.**.nic.mac1609_4.useServiceChannel false
param *.**.nic.phy80211p.analogueModels "xmldoc(\"config.xml\")"
param *.**.nic.phy80211p.decider "xmldoc(\"config.xml\")"
param *.**.nic.phy80211p.maxTXPower 100mW
param *.**.nic.phy80211p.sensitivity -94dBm
param *.**.nic.phy80211p.thermalNoise -95dBm
param *.**.nic.phy80211p.usePropagationDelay true
param *.**.nic.phy80211p.useThermalNoise true
param *.annotations.draw false
param *.connectionManager.alpha 2.0
param *.connectionManager.carrierFrequency "5.890e9 Hz"
param *.connectionManager.pMax 100mW
param *.connectionManager.sat -94dBm
param *.connectionManager.sendDirect true
param *.manager.autoShutdown true
param *.manager.commandLine "\"sumo --remote-port $port --seed $seed --configuration-file $configFile\""
param *.manager.configFile "\"./sumocfg/freeway.sumo.cfg\""
param *.manager.host "\"localhost\""
param *.manager.margin 25
param *.manager.moduleDisplayString "\"\""
param *.manager.moduleName "\"node\""
param *.manager.moduleType "\"Car\""
param *.manager.updateInterval 0.01s
param *.node[*].appl.attackStart 30s
param *.node[*].appl.attackerType 2
param *.node[*].appl.simulationDuration "60 s"
param *.node[*].appl_type "\"SimplePlatooningApp\""
param *.node[*].helper.nCars 8
param *.node[*].helper.nLanes 1
param *.node[*].helper.platoonSize 8
param *.node[*].helper_type "\"PositionHelper\""
param *.node[*].mobility.x 0
param *.node[*].mobility.y 0
param *.node[*].mobility.z 1.895
param *.node[*].prot.attackStart 30s
param *.node[*].prot.attackerType 2
param *.node[*].prot.attackingNode 3
param *.node[*].prot.beaconingInterval 0.1s
param *.node[*].prot.fakeAcc "(2 == 4)"
param *.node[*].prot.fakePos "(2 == 2)"
param *.node[*].prot.fakeSpeed "(2 == 3)"
param *.node[*].prot.maliciousAcc "-30 mpss"
param *.node[*].prot.maliciousSpeed 150kmph
param *.node[*].prot.packetSize 200
param *.node[*].prot.priority 2
param *.node[*].prot.shiftX "11 m"
param *.node[*].prot.useControllerAcceleration true
param *.node[*].protocol_type "\"SimplePlatooningBeaconing\""
param *.node[*].scenario.accHeadway 0.1s
param *.node[*].scenario.caccC1 0.5
param *.node[*].scenario.caccOmegaN "0.2 Hz"
param *.node[*].scenario.caccSpacing 20m
param *.node[*].scenario.caccXi 1
param *.node[*].scenario.controller "\"CACC\""
param *.node[*].scenario.engineTau "0.5 s"
param *.node[*].scenario.leaderHeadway 1.2s
param *.node[*].scenario.leaderOscillationFrequency "0.2 Hz"
param *.node[*].scenario.leaderSpeed 150kmph
param *.node[*].scenario.oscillationAmplitude "10 kmph"
param *.node[*].scenario.ploegH 0.5s
param *.node[*].scenario.ploegKd 0.7
param *.node[*].scenario.ploegKp 0.2
param *.node[*].scenario.startOscillating "5 s"
param *.node[*].scenario.useRealisticEngine false
param *.node[*].scenario_type "\"SinusoidalScenario\""
param *.node[*].unicast.packetLossRate 0
param *.obstacles.debug false
param *.playgroundSizeX 65000m
param *.playgroundSizeY 25000m
param *.playgroundSizeZ 50m
param *.world.use2D false
param *.world.useTorus false

vector 0  scenario.node[0].appl  distance  ETV
vector 1  scenario.node[0].appl  relativeSpeed  ETV
vector 2  scenario.node[0].appl  nodeId  ETV
vector 6  scenario.node[0].appl  acceleration  ETV
vector 7  scenario.node[0].appl  controllerAcceleration  ETV
vector 3  scenario.node[0].appl  speed  ETV
vector 4  scenario.node[0].appl  posx  ETV
vector 5  scenario.node[0].appl  posy  ETV
vector 22  scenario.node[1].appl  distance  ETV
vector 23  scenario.node[1].appl  relativeSpeed  ETV
vector 24  scenario.node[1].appl  nodeId  ETV
vector 28  scenario.node[1].appl  acceleration  ETV
vector 29  scenario.node[1].appl  controllerAcceleration  ETV
vector 25  scenario.node[1].appl  speed  ETV
vector 26  scenario.node[1].appl  posx  ETV
vector 27  scenario.node[1].appl  posy  ETV
vector 44  scenario.node[2].appl  distance  ETV
vector 45  scenario.node[2].appl  relativeSpeed  ETV
vector 46  scenario.node[2].appl  nodeId  ETV
vector 50  scenario.node[2].appl  acceleration  ETV
vector 51  scenario.node[2].appl  controllerAcceleration  ETV
vector 47  scenario.node[2].appl  speed  ETV
vector 48  scenario.node[2].appl  posx  ETV
vector 49  scenario.node[2].appl  posy  ETV
vector 66  scenario.node[3].appl  distance  ETV
vector 67  scenario.node[3].appl  relativeSpeed  ETV
vector 68  scenario.node[3].appl  nodeId  ETV
vector 72  scenario.node[3].appl  acceleration  ETV
vector 73  scenario.node[3].appl  controllerAcceleration  ETV
vector 69  scenario.node[3].appl  speed  ETV
vector 70  scenario.node[3].appl  posx  ETV
vector 71  scenario.node[3].appl  posy  ETV
vector 88  scenario.node[4].appl  distance  ETV
vector 89  scenario.node[4].appl  relativeSpeed  ETV
vector 90  scenario.node[4].appl  nodeId  ETV
vector 94  scenario.node[4].appl  acceleration  ETV
vector 95  scenario.node[4].appl  controllerAcceleration  ETV
vector 91  scenario.node[4].appl  speed  ETV
vector 92  scenario.node[4].appl  posx  ETV
vector 93  scenario.node[4].appl  posy  ETV
vector 110  scenario.node[5].appl  distance  ETV
vector 111  scenario.node[5].appl  relativeSpeed  ETV
vector 112  scenario.node[5].appl  nodeId  ETV
vector 116  scenario.node[5].appl  acceleration  ETV
vector 117  scenario.node[5].appl  controllerAcceleration  ETV
vector 113  scenario.node[5].appl  speed  ETV
vector 114  scenario.node[5].appl  posx  ETV
vector 115  scenario.node[5].appl  posy  ETV
vector 132  scenario.node[6].appl  distance  ETV
vector 133  scenario.node[6].appl  relativeSpeed  ETV
vector 134  scenario.node[6].appl  nodeId  ETV
vector 138  scenario.node[6].appl  acceleration  ETV
vector 139  scenario.node[6].appl  controllerAcceleration  ETV
vector 135  scenario.node[6].appl  speed  ETV
vector 136  scenario.node[6].appl  posx  ETV
vector 137  scenario.node[6].appl  posy  ETV
vector 154  scenario.node[7].appl  distance  ETV
vector 155  scenario.node[7].appl  relativeSpeed  ETV
vector 156  scenario.node[7].appl  nodeId  ETV
vector 160  scenario.node[7].appl  acceleration  ETV
vector 161  scenario.node[7].appl  controllerAcceleration  ETV
vector 157  scenario.node[7].appl  speed  ETV
vector 158  scenario.node[7].appl  posx  ETV
vector 159  scenario.node[7].appl  posy  ETV
vector 168  scenario.node[7].prot  frontDelay  ETV
vector 166  scenario.node[7].prot  frontDelayId  ETV
vector 146  scenario.node[6].prot  frontDelay  ETV
vector 144  scenario.node[6].prot  frontDelayId  ETV
vector 35  scenario.node[1].prot  leaderDelay  ETV
vector 33  scenario.node[1].prot  leaderDelayId  ETV
vector 36  scenario.node[1].prot  frontDelay  ETV
vector 34  scenario.node[1].prot  frontDelayId  ETV
vector 57  scenario.node[2].prot  leaderDelay  ETV
vector 55  scenario.node[2].prot  leaderDelayId  ETV
vector 79  scenario.node[3].prot  leaderDelay  ETV
vector 77  scenario.node[3].prot  leaderDelayId  ETV
vector 101  scenario.node[4].prot  leaderDelay  ETV
vector 99  scenario.node[4].prot  leaderDelayId  ETV
vector 123  scenario.node[5].prot  leaderDelay  ETV
vector 121  scenario.node[5].prot  leaderDelayId  ETV
vector 145  scenario.node[6].prot  leaderDelay  ETV
vector 143  scenario.node[6].prot  leaderDelayId  ETV
vector 167  scenario.node[7].prot  leaderDelay  ETV
vector 165  scenario.node[7].prot  leaderDelayId  ETV
vector 102  scenario.node[4].prot  frontDelay  ETV
vector 100  scenario.node[4].prot  frontDelayId  ETV
vector 80  scenario.node[3].prot  frontDelay  ETV
vector 78  scenario.node[3].prot  frontDelayId  ETV
vector 124  scenario.node[5].prot  frontDelay  ETV
vector 122  scenario.node[5].prot  frontDelayId  ETV
vector 58  scenario.node[2].prot  frontDelay  ETV
vector 56  scenario.node[2].prot  frontDelayId  ETV
vector 8  scenario.node[0].prot  nodeId  ETV
vector 9  scenario.node[0].prot  busyTime  ETV
vector 10  scenario.node[0].prot  collisions  ETV
vector 30  scenario.node[1].prot  nodeId  ETV
vector 31  scenario.node[1].prot  busyTime  ETV
vector 32  scenario.node[1].prot  collisions  ETV
vector 52  scenario.node[2].prot  nodeId  ETV
vector 53  scenario.node[2].prot  busyTime  ETV
vector 54  scenario.node[2].prot  collisions  ETV
vector 74  scenario.node[3].prot  nodeId  ETV
vector 75  scenario.node[3].prot  busyTime  ETV
vector 76  scenario.node[3].prot  collisions  ETV
vector 96  scenario.node[4].prot  nodeId  ETV
vector 97  scenario.node[4].prot  busyTime  ETV
vector 98  scenario.node[4].prot  collisions  ETV
vector 118  scenario.node[5].prot  nodeId  ETV
vector 119  scenario.node[5].prot  busyTime  ETV
vector 120  scenario.node[5].prot  collisions  ETV
vector 140  scenario.node[6].prot  nodeId  ETV
vector 141  scenario.node[6].prot  busyTime  ETV
vector 142  scenario.node[6].prot  collisions  ETV
vector 162  scenario.node[7].prot  nodeId  ETV
vector 163  scenario.node[7].prot  busyTime  ETV
vector 164  scenario.node[7].prot  collisions  ETV
7	11263 13862 232 328174 1.11 59.91 589 -1.5 1.5 -14.445978168666 993.24092374633
6	25125 18591 232 328174 1.11 59.91 589 -1.4722746794739 1.4513434175775 -12.507273387293 675.29835233824
5	43716 12081 232 328174 1.11 59.91 589 36.55 36.55 21527.95 786846.5725
4	55797 17911 232 328174 1.11 59.91 589 207.05996208151 2661.3760946684 845574.18791194 1510140664.1275
3	73708 17882 232 328174 1.11 59.91 589 40.376854748618 43.631381416411 24584.394369227 1026576.1694128
1	91590 9725 232 328174 1.11 59.91 589 0 0 0 0
0	101315 10314 232 328174 1.11 59.91 589 -1 -1 -589 589
2	111629 9725 232 328174 1.11 59.91 589 0 0 0 0
10	121354 858 5168 328662 2 60 59 0 0 0 0
9	122212 1154 5168 328662 2 60 59 0.023297 0.02625 1.545797 0.040508375209
8	123366 799 5168 328662 2 60 59 0 0 0 0
29	124165 17089 233 328175 1.11 59.91 589 -1.5201885308666 1.5215379204632 -16.621678447485 995.58727586644
28	141254 19158 233 328175 1.11 59.91 589 -1.4845166983122 1.4492363480585 -12.160488733142 675.58506016555
27	160412 12670 233 328175 1.11 59.91 589 36.55 36.55 21527.95 786846.5725
26	173082 18485 233 328175 1.11 59.91 589 183.05996208191 2637.3215782133 831381.19832888 1469695804.7394
25	191567 18498 233 328175 1.11 59.91 589 40.371478735482 43.62712233618 24583.864798149 1026531.9984316
23	210065 20102 233 328175 1.11 59.91 589 -0.085666453981553 0.092346611381046 0.65464381170989 2.4329174933222
22	230167 18489 233 328175 1.11 59.91 589 19.942679106234 20.230457319183 11836.978991634 237887.94032762
24	248656 10314 233 328175 1.11 59.91 589 1 1 589 589
36	258970 23694 1034 328420 1.262218481716 59.962221695887 588 0.099999759937 0.100012763302 58.800002975389 5.8800005969021
35	282664 23694 1034 328420 1.262218481716 59.962221695887 588 0.099999759937 0.100012763302 58.800002975389 5.8800005969021
34	306358 16112 1034 328420 1.262218481716 59.962221695887 588 1 1 588 588
33	322470 16112 1034 328420 1.262218481716 59.962221695887 588 1 1 588 588
32	338582 858 5169 328663 2 60 59 0 0 0 0
31	339440 1213 5169 328663 2 60 59 0.023296 0.02625 1.545796 0.040508328616
30	340653 858 5169 328663 2 60 59 1 1 59 59
51	341511 19033 234 328176 1.11 59.91 589 -1.4917898285855 1.4990053112133 -15.174471004619 962.21972665024
50	360544 19155 234 328176 1.11 59.91 589 -1.4755502044913 1.4415876758989 -11.894530962294 670.56364721257
49	379699 12670 234 328176 1.11 59.91 589 36.55 36.55 21527.95 786846.5725
48	392369 18508 234 328176 1.11 59.91 589 159.05996208191 2613.2947962243 817229.05377389 1430071550.4086
47	410877 18502 234 328176 1.11 59.91 589 40.374899765154 43.621861122539 24583.603803364 1026506.3636191
45	429379 20351 234 328176 1.11 59.91 589 -0.01777464488606 0.016578161066576 0.3825996727597 0.057315593839908
44	449730 18484 234 328176 1.11 59.91 589 19.984493222034 20.070358956133 11796.139335102 236246.30721552
46	468214 10314 234 328176 1.11 59.91 589 2 2 1178 2356
58	478528 23718 1312 328701 1.302598202214 60.002601416286 588 0.099999759924 0.100012763807 58.80000297529 5.8800005968822
57	502246 23704 1040 328426 1.262218561772 59.962221776028 588 0.099999759938 0.100012763298 58.800002975474 5.8800005969191
56	525950 16120 1312 328701 1.302598202214 60.002601416286 588 2 2 1176 2352
55	542070 16117 1040 328426 1.262218561772 59.962221776028 588 2 2 1176 2352
54	558187 858 5170 328664 2 60 59 0 0 0 0
53	559045 1213 5170 328664 2 60 59 0.023297 0.02625 1.545797 0.040508375209
52	560258 858 5170 328664 2 60 59 2 2 118 236
73	561116 18993 235 328177 1.11 59.91 589 -1.5133685813507 1.5080594309382 -15.672898858411 986.36881166744
72	580109 19172 235 328177 1.11 59.91 589 -1.4653396919059 1.4364933080792 -11.753439821348 662.08108414205
71	599281 12670 235 328177 1.11 59.91 589 36.55 36.55 21527.95 786846.5725
70	611951 18482 235 328177 1.11 59.91 589 135.0599697113 2589.3178062914 803099.45124289 1391205754.701
69	630433 18496 235 328177 1.11 59.91 589 40.383586413493 43.612915647186 24583.839650375 1026520.9331598
67	648929 20560 235 328177 1.11 59.91 589 -0.015548640498203 0.01123016172378 -0.11690170189359 0.020984438743471
66	669489 18492 235 328177 1.11 59.91 589 19.962130290872 20.035282119877 11773.607247936 235344.49957695
68	687981 10314 235 328177 1.11 59.91 589 3 3 1767 5301
80	698295 23714 1176 328556 1.287874801937 59.987878015954 588 0.099999759933 0.100012763801 58.800002975235 5.8800005968712
79	722009 23700 1046 328432 1.262218641827 59.962221856004 588 0.099999759936 0.100012763295 58.800002975395 5.8800005969033
78	745709 16119 1176 328556 1.287874801937 59.987878015954 588 3 3 1764 5292
77	761828 16116 1046 328432 1.262218641827 59.962221856004 588 3 3 1764 5292
76	777944 858 5171 328665 2 60 59 0 0 0 0
75	778802 1213 5171 328665 2 60 59 0.023297 0.02625 1.545797 0.040508375209
74	780015 858 5171 328665 2 60 59 3 3 177 531
95	780873 19079 236 328178 1.11 59.91 589 -1.4996309305223 1.5 -15.523082533085 967.70518949808
94	799952 19173 236 328178 1.11 59.91 589 -1.456043330613 1.4292962602163 -11.633993024295 653.26198226743
93	819125 12670 236 328178 1.11 59.91 589 36.55 36.55 21527.95 786846.5725
92	831795 18486 236 328178 1.11 59.91 589 111.0599697113 2565.3217472894 788966.37047259 1353005783.4172
91	850281 18497 236 328178 1.11 59.91 589 40.392835471889 43.602711284548 24583.883291271 1026519.1367443
89	868778 20512 236 328178 1.11 59.91 589 -0.013442532892654 0.011890477323014 0.073893502670934 0.033713493575739
88	889290 18474 236 328178 1.11 59.91 589 19.978353987076 20.022254925149 11777.081643114 235483.33172413
90	907764 10314 236 328178 1.11 59.91 589 4 4 2356 9424
102	918078 24274 1108 328494 1.276580721882 59.976583936044 588 0.099999759934 0.100012763824 58.80000297538 5.8800005969002
101	942352 24279 1052 328438 1.262218721883 59.962221936044 588 0.099999759933 0.100012763296 58.800002975379 5.8800005969001
100	966631 16687 1108 328494 1.276580721882 59.976583936044 588 4 4 2352 9408
99	983318 16111 1052 328438 1.262218721883 59.962221936044 588 4 4 2352 9408
98	999429 858 5172 328666 2 60 59 0 0 0 0
97	1000287 1213 5172 328666 2 60 59 0.023297 0.02625 1.545797 0.040508375209
96	1001500 858 5172 328666 2 60 59 4 4 236 944
117	1002358 18434 237 328179 1.11 59.91 589 -1.5082275571542 1.5070927530603 -15.899127723667 983.25839944518
116	1020792 19771 237 328179 1.11 59.91 589 -1.4565901774048 1.4325474505419 -11.751593665914 658.09297488267
115	1040563 13259 237 328179 1.11 59.91 589 36.55 36.55 21527.95 786846.5725
114	1053822 19085 237 328179 1.11 59.91 589 87.059965896606 2541.3122227995 774832.33720914 1315481598.8118
113	1072907 19097 237 328179 1.11 59.91 589 40.387828459413 43.604574204146 24583.783874394 1026513.6042186
111	1092004 20748 237 328179 1.11 59.91 589 -0.03054582936263 0.032214803115416 0.21575680684459 0.25523667876412
110	1112752 19083 237 328179 1.11 59.91 589 19.977688778453 20.019410339195 11778.031275117 235521.31465277
112	1131835 10903 237 328179 1.11 59.91 589 5 5 2945 14725
124	1142738 24296 1244 328630 1.297504962048 59.997508176083 588 0.099999759931 0.100012763589 58.800002975253 5.8800005968748
123	1167034 24290 1058 328444 1.262218801938 59.962222016133 588 0.099999759934 0.100012763298 58.800002975413 5.8800005969069
122	1191324 16705 1244 328630 1.297504962048 59.997508176083 588 5 5 2940 14700
121	1208029 16706 1058 328444 1.262218801938 59.962222016133 588 5 5 2940 14700
120	1224735 917 5173 328667 2 60 59 0 0 0 0
119	1225652 1272 5173 328667 2 60 59 0.023297 0.02625 1.545797 0.040508375209
118	1226924 917 5173 328667 2 60 59 5 5 295 1475
139	1227841 19657 238 328180 1.11 59.91 589 -1.4953972050131 1.4959038764569 -15.577864234626 964.45061034443
138	1247498 19770 238 328180 1.11 59.91 589 -1.4603980403137 1.4356292486006 -11.653420758669 660.7317028176
137	1267268 13259 238 328180 1.11 59.91 589 36.55 36.55 21527.95 786846.5725
136	1280527 19080 238 328180 1.11 59.91 589 63.059965896606 2517.3345967982 760698.82379417 1278637941.7576
135	1299607 19093 238 328180 1.11 59.91 589 40.386422021212 43.608495004992 24584.011294153 1026534.2385035
133	1318700 21132 238 328180 1.11 59.91 589 -0.010290743614576 0.010619115017491 -0.10990382171715 0.030431782289476
132	1339832 19073 238 328180 1.11 59.91 589 19.96792643094 20.027592333717 11777.517963367 235500.85935984
134	1358905 10903 238 328180 1.11 59.91 589 6 6 3534 21204
146	1369808 24273 970 328350 1.247596081439 59.947599295154 588 0.09999975992 0.100012763853 58.800002974933 5.8800005968108
145	1394081 24306 1064 328450 1.262218881993 59.962222096112 588 0.099999759935 0.100012763292 58.800002975337 5.8800005968917
144	1418387 16694 970 328350 1.247596081439 59.947599295154 588 6 6 3528 21168
143	1435081 16720 1064 328450 1.262218881993 59.962222096112 588 6 6 3528 21168
142	1451801 917 5174 328668 2 60 59 0 0 0 0
141	1452718 1272 5174 328668 2 60 59 0.023297 0.02625 1.545797 0.040508375209
140	1453990 917 5174 328668 2 60 59 6 6 354 2124
161	1454907 19654 239 328181 1.11 59.91 589 -1.4856633889586 1.4866431696976 -15.477398569696 939.52517258324
160	1474561 19763 239 328181 1.11 59.91 589 -1.4555086104984 1.4303025352731 -11.567825541924 655.72349174971
159	1494324 13259 239 328181 1.11 59.91 589 36.55 36.55 21527.95 786846.5725
158	1507583 19083 239 328181 1.11 59.91 589 39.059966850281 2493.3421973031 746565.83729921 1242473977.8364
157	1526666 19078 239 328181 1.11 59.91 589 40.392425570854 43.603378758373 24584.090200034 1026537.5960781
155	1545744 21169 239 328181 1.11 59.91 589 -0.0097156377402143 0.0092554915509879 0.037628325747107 0.025650973499996
154	1566913 19060 239 328181 1.11 59.91 589 19.982546896911 20.013502936188 11776.988073073 235479.5653175
156	1585973 10903 239 328181 1.11 59.91 589 7 7 4123 28861
168	1596876 24300 832 328218 1.212137841273 59.912128055164 588 0.099999759918 0.100012762793 58.799989975109 5.8799979966833
167	1621176 24289 1070 328456 1.262218962049 59.962222176141 588 0.099999759934 0.100012763293 58.80000297531 5.8800005968862
166	1645465 16713 832 328218 1.212137841273 59.912128055164 588 7 7 4116 28812
165	1662178 16694 1070 328456 1.262218962049 59.962222176141 588 7 7 4116 28812
164	1678872 917 5175 328669 2 60 59 0 0 0 0
163	1679789 1272 5175 328669 2 60 59 0.023297 0.02625 1.545797 0.040508375209
162	1681061 917 5175 328669 2 60 59 7 7 413 2891
