file 1682084 1501692401                                         
version 2
run SinusoidalPosInjectionAttack-289-20170802-18:46:10-115133
attr CACCSpacing 20
attr attackAcc -30
attr attackPos 11
attr attackSpeed 150
attr attackStart 30
attr attacker 2
attr beaconInterval 0.1
attr configname SinusoidalPosInjectionAttack
attr controller 1
attr datetime 20170802-18:46:10
attr experiment SinusoidalPosInjectionAttack
attr fakeAcc "(2 == 4)"
attr fakePos "(2 == 2)"
attr fakeSpeed "(2 == 3)"
attr inifile omnetpp_289.ini
attr iterationvars "$attacker=2, $attackSpeed=150, $attackPos=11, $attackAcc=-30, $leaderSpeed=150, $controller=1, $CACCSpacing=20, $sController=\"CACC\", $attackStart=30, $0=20, $1=0, $nCars=8, $platoonSize=8, $nLanes=1, $beaconInterval=0.1, $priority=2, $packetSize=200, $ploegH=0.5, $leaderHeadway=1.2, $fakeSpeed=(2 == 3), $fakeAcc=(2 == 4), $fakePos=(2 == 2)"
attr iterationvarsf attacker=2,attackSpeed=150,attackPos=11,attackAcc=-30,leaderSpeed=150,controller=1,CACCSpacing=20,sController=CACC,attackStart=30,20,0,nCars=8,platoonSize=8,nLanes=1,beaconInterval=0.1,priority=2,packetSize=200,ploegH=0.5,leaderHeadway=1.2,fakeSpeed=(2_==_3),fakeAcc=(2_==_4),fakePos=(2_==_2)-
attr leaderHeadway 1.2
attr leaderSpeed 150
attr measurement "$attacker=2, $attackSpeed=150, $attackPos=11, $attackAcc=-30, $leaderSpeed=150, $controller=1, $CACCSpacing=20, $sController=\"CACC\", $attackStart=30, $0=20, $1=0, $nCars=8, $platoonSize=8, $nLanes=1, $beaconInterval=0.1, $priority=2, $packetSize=200, $ploegH=0.5, $leaderHeadway=1.2, $fakeSpeed=(2 == 3), $fakeAcc=(2 == 4), $fakePos=(2 == 2)"
attr nCars 8
attr nLanes 1
attr network scenario
attr packetSize 200
attr platoonSize 8
attr ploegH 0.5
attr priority 2
attr processid 115133
attr repetition 4
attr replication #4
attr resultdir results
attr runnumber 289
attr sController "\"CACC\""
attr seedset 4
param **.coreDebug false
param **.debug false
param **.headway 0.1s
param **.numberOfCars 8
param **.numberOfCarsPerPlatoon 8
param **.numberOfLanes 1
param **.numericController 1
param **.traffic.nCars 8
param **.traffic.nLanes 1
param **.traffic.platoonInsertDistance 20m
param **.traffic.platoonInsertHeadway 0s
param **.traffic.platoonInsertSpeed 150kmph
param **.traffic.platoonInsertTime "1 s"
param **.traffic.platoonLeaderHeadway 1.2s
param **.traffic.platoonSize 8
param **.traffic.platooningVType "\"vtypeauto\""
param **.traffic_type "\"PlatoonsTrafficManager\""
param *.**.nic.mac1609_4.bitrate 6Mbps
param *.**.nic.mac1609_4.txPower 100mW
param *.**.nic.mac1609_4.useServiceChannel false
param *.**.nic.phy80211p.analogueModels "xmldoc(\"config.xml\")"
param *.**.nic.phy80211p.decider "xmldoc(\"config.xml\")"
param *.**.nic.phy80211p.maxTXPower 100mW
param *.**.nic.phy80211p.sensitivity -94dBm
param *.**.nic.phy80211p.thermalNoise -95dBm
param *.**.nic.phy80211p.usePropagationDelay true
param *.**.nic.phy80211p.useThermalNoise true
param *.annotations.draw false
param *.connectionManager.alpha 2.0
param *.connectionManager.carrierFrequency "5.890e9 Hz"
param *.connectionManager.pMax 100mW
param *.connectionManager.sat -94dBm
param *.connectionManager.sendDirect true
param *.manager.autoShutdown true
param *.manager.commandLine "\"sumo --remote-port $port --seed $seed --configuration-file $configFile\""
param *.manager.configFile "\"./sumocfg/freeway.sumo.cfg\""
param *.manager.host "\"localhost\""
param *.manager.margin 25
param *.manager.moduleDisplayString "\"\""
param *.manager.moduleName "\"node\""
param *.manager.moduleType "\"Car\""
param *.manager.updateInterval 0.01s
param *.node[*].appl.attackStart 30s
param *.node[*].appl.attackerType 2
param *.node[*].appl.simulationDuration "60 s"
param *.node[*].appl_type "\"SimplePlatooningApp\""
param *.node[*].helper.nCars 8
param *.node[*].helper.nLanes 1
param *.node[*].helper.platoonSize 8
param *.node[*].helper_type "\"PositionHelper\""
param *.node[*].mobility.x 0
param *.node[*].mobility.y 0
param *.node[*].mobility.z 1.895
param *.node[*].prot.attackStart 30s
param *.node[*].prot.attackerType 2
param *.node[*].prot.attackingNode 3
param *.node[*].prot.beaconingInterval 0.1s
param *.node[*].prot.fakeAcc "(2 == 4)"
param *.node[*].prot.fakePos "(2 == 2)"
param *.node[*].prot.fakeSpeed "(2 == 3)"
param *.node[*].prot.maliciousAcc "-30 mpss"
param *.node[*].prot.maliciousSpeed 150kmph
param *.node[*].prot.packetSize 200
param *.node[*].prot.priority 2
param *.node[*].prot.shiftX "11 m"
param *.node[*].prot.useControllerAcceleration true
param *.node[*].protocol_type "\"SimplePlatooningBeaconing\""
param *.node[*].scenario.accHeadway 0.1s
param *.node[*].scenario.caccC1 0.5
param *.node[*].scenario.caccOmegaN "0.2 Hz"
param *.node[*].scenario.caccSpacing 20m
param *.node[*].scenario.caccXi 1
param *.node[*].scenario.controller "\"CACC\""
param *.node[*].scenario.engineTau "0.5 s"
param *.node[*].scenario.leaderHeadway 1.2s
param *.node[*].scenario.leaderOscillationFrequency "0.2 Hz"
param *.node[*].scenario.leaderSpeed 150kmph
param *.node[*].scenario.oscillationAmplitude "10 kmph"
param *.node[*].scenario.ploegH 0.5s
param *.node[*].scenario.ploegKd 0.7
param *.node[*].scenario.ploegKp 0.2
param *.node[*].scenario.startOscillating "5 s"
param *.node[*].scenario.useRealisticEngine false
param *.node[*].scenario_type "\"SinusoidalScenario\""
param *.node[*].unicast.packetLossRate 0
param *.obstacles.debug false
param *.playgroundSizeX 65000m
param *.playgroundSizeY 25000m
param *.playgroundSizeZ 50m
param *.world.use2D false
param *.world.useTorus false

vector 0  scenario.node[0].appl  distance  ETV
vector 1  scenario.node[0].appl  relativeSpeed  ETV
vector 2  scenario.node[0].appl  nodeId  ETV
vector 6  scenario.node[0].appl  acceleration  ETV
vector 7  scenario.node[0].appl  controllerAcceleration  ETV
vector 3  scenario.node[0].appl  speed  ETV
vector 4  scenario.node[0].appl  posx  ETV
vector 5  scenario.node[0].appl  posy  ETV
vector 22  scenario.node[1].appl  distance  ETV
vector 23  scenario.node[1].appl  relativeSpeed  ETV
vector 24  scenario.node[1].appl  nodeId  ETV
vector 28  scenario.node[1].appl  acceleration  ETV
vector 29  scenario.node[1].appl  controllerAcceleration  ETV
vector 25  scenario.node[1].appl  speed  ETV
vector 26  scenario.node[1].appl  posx  ETV
vector 27  scenario.node[1].appl  posy  ETV
vector 44  scenario.node[2].appl  distance  ETV
vector 45  scenario.node[2].appl  relativeSpeed  ETV
vector 46  scenario.node[2].appl  nodeId  ETV
vector 50  scenario.node[2].appl  acceleration  ETV
vector 51  scenario.node[2].appl  controllerAcceleration  ETV
vector 47  scenario.node[2].appl  speed  ETV
vector 48  scenario.node[2].appl  posx  ETV
vector 49  scenario.node[2].appl  posy  ETV
vector 66  scenario.node[3].appl  distance  ETV
vector 67  scenario.node[3].appl  relativeSpeed  ETV
vector 68  scenario.node[3].appl  nodeId  ETV
vector 72  scenario.node[3].appl  acceleration  ETV
vector 73  scenario.node[3].appl  controllerAcceleration  ETV
vector 69  scenario.node[3].appl  speed  ETV
vector 70  scenario.node[3].appl  posx  ETV
vector 71  scenario.node[3].appl  posy  ETV
vector 88  scenario.node[4].appl  distance  ETV
vector 89  scenario.node[4].appl  relativeSpeed  ETV
vector 90  scenario.node[4].appl  nodeId  ETV
vector 94  scenario.node[4].appl  acceleration  ETV
vector 95  scenario.node[4].appl  controllerAcceleration  ETV
vector 91  scenario.node[4].appl  speed  ETV
vector 92  scenario.node[4].appl  posx  ETV
vector 93  scenario.node[4].appl  posy  ETV
vector 110  scenario.node[5].appl  distance  ETV
vector 111  scenario.node[5].appl  relativeSpeed  ETV
vector 112  scenario.node[5].appl  nodeId  ETV
vector 116  scenario.node[5].appl  acceleration  ETV
vector 117  scenario.node[5].appl  controllerAcceleration  ETV
vector 113  scenario.node[5].appl  speed  ETV
vector 114  scenario.node[5].appl  posx  ETV
vector 115  scenario.node[5].appl  posy  ETV
vector 132  scenario.node[6].appl  distance  ETV
vector 133  scenario.node[6].appl  relativeSpeed  ETV
vector 134  scenario.node[6].appl  nodeId  ETV
vector 138  scenario.node[6].appl  acceleration  ETV
vector 139  scenario.node[6].appl  controllerAcceleration  ETV
vector 135  scenario.node[6].appl  speed  ETV
vector 136  scenario.node[6].appl  posx  ETV
vector 137  scenario.node[6].appl  posy  ETV
vector 154  scenario.node[7].appl  distance  ETV
vector 155  scenario.node[7].appl  relativeSpeed  ETV
vector 156  scenario.node[7].appl  nodeId  ETV
vector 160  scenario.node[7].appl  acceleration  ETV
vector 161  scenario.node[7].appl  controllerAcceleration  ETV
vector 157  scenario.node[7].appl  speed  ETV
vector 158  scenario.node[7].appl  posx  ETV
vector 159  scenario.node[7].appl  posy  ETV
vector 102  scenario.node[4].prot  frontDelay  ETV
vector 100  scenario.node[4].prot  frontDelayId  ETV
vector 35  scenario.node[1].prot  leaderDelay  ETV
vector 33  scenario.node[1].prot  leaderDelayId  ETV
vector 36  scenario.node[1].prot  frontDelay  ETV
vector 34  scenario.node[1].prot  frontDelayId  ETV
vector 57  scenario.node[2].prot  leaderDelay  ETV
vector 55  scenario.node[2].prot  leaderDelayId  ETV
vector 79  scenario.node[3].prot  leaderDelay  ETV
vector 77  scenario.node[3].prot  leaderDelayId  ETV
vector 101  scenario.node[4].prot  leaderDelay  ETV
vector 99  scenario.node[4].prot  leaderDelayId  ETV
vector 123  scenario.node[5].prot  leaderDelay  ETV
vector 121  scenario.node[5].prot  leaderDelayId  ETV
vector 145  scenario.node[6].prot  leaderDelay  ETV
vector 143  scenario.node[6].prot  leaderDelayId  ETV
vector 167  scenario.node[7].prot  leaderDelay  ETV
vector 165  scenario.node[7].prot  leaderDelayId  ETV
vector 80  scenario.node[3].prot  frontDelay  ETV
vector 78  scenario.node[3].prot  frontDelayId  ETV
vector 146  scenario.node[6].prot  frontDelay  ETV
vector 144  scenario.node[6].prot  frontDelayId  ETV
vector 58  scenario.node[2].prot  frontDelay  ETV
vector 56  scenario.node[2].prot  frontDelayId  ETV
vector 124  scenario.node[5].prot  frontDelay  ETV
vector 122  scenario.node[5].prot  frontDelayId  ETV
vector 168  scenario.node[7].prot  frontDelay  ETV
vector 166  scenario.node[7].prot  frontDelayId  ETV
vector 8  scenario.node[0].prot  nodeId  ETV
vector 9  scenario.node[0].prot  busyTime  ETV
vector 10  scenario.node[0].prot  collisions  ETV
vector 30  scenario.node[1].prot  nodeId  ETV
vector 31  scenario.node[1].prot  busyTime  ETV
vector 32  scenario.node[1].prot  collisions  ETV
vector 52  scenario.node[2].prot  nodeId  ETV
vector 53  scenario.node[2].prot  busyTime  ETV
vector 54  scenario.node[2].prot  collisions  ETV
vector 74  scenario.node[3].prot  nodeId  ETV
vector 75  scenario.node[3].prot  busyTime  ETV
vector 76  scenario.node[3].prot  collisions  ETV
vector 96  scenario.node[4].prot  nodeId  ETV
vector 97  scenario.node[4].prot  busyTime  ETV
vector 98  scenario.node[4].prot  collisions  ETV
vector 118  scenario.node[5].prot  nodeId  ETV
vector 119  scenario.node[5].prot  busyTime  ETV
vector 120  scenario.node[5].prot  collisions  ETV
vector 140  scenario.node[6].prot  nodeId  ETV
vector 141  scenario.node[6].prot  busyTime  ETV
vector 142  scenario.node[6].prot  collisions  ETV
vector 162  scenario.node[7].prot  nodeId  ETV
vector 163  scenario.node[7].prot  busyTime  ETV
vector 164  scenario.node[7].prot  collisions  ETV
7	11263 13862 232 328174 1.11 59.91 589 -1.5 1.5 -14.445978168666 993.24092374633
6	25125 18591 232 328174 1.11 59.91 589 -1.4722746794739 1.4513434175775 -12.507273387293 675.29835233824
5	43716 12081 232 328174 1.11 59.91 589 36.55 36.55 21527.95 786846.5725
4	55797 17917 232 328174 1.11 59.91 589 218.44185905417 2672.757991641 852278.12522883 1529465444.2304
3	73714 17882 232 328174 1.11 59.91 589 40.376854748618 43.631381416411 24584.394369227 1026576.1694128
1	91596 9725 232 328174 1.11 59.91 589 0 0 0 0
0	101321 10314 232 328174 1.11 59.91 589 -1 -1 -589 589
2	111635 9725 232 328174 1.11 59.91 589 0 0 0 0
10	121360 859 5234 328728 2 60 59 0 0 0 0
9	122219 1155 5234 328728 2 60 59 0.023625 0.02625 1.546125 0.040523765625
8	123374 800 5234 328728 2 60 59 0 0 0 0
29	124174 17855 233 328175 1.11 59.91 589 -1.5022740557198 1.5017241001272 -14.809052443212 987.50351697568
28	142029 19155 233 328175 1.11 59.91 589 -1.4793271055183 1.4491063996864 -12.221349645153 673.78414348804
27	161184 12670 233 328175 1.11 59.91 589 36.55 36.55 21527.95 786846.5725
26	173854 18489 233 328175 1.11 59.91 589 194.44185905457 2648.763624483 838124.53111918 1488830983.2965
25	192343 18491 233 328175 1.11 59.91 589 40.376602337142 43.632935310277 24584.461760211 1026580.9308281
23	210834 20131 233 328175 1.11 59.91 589 -0.062041779756484 0.063261405696046 0.057681750244804 1.2031950463454
22	230965 18494 233 328175 1.11 59.91 589 19.934067041531 20.123785057191 11797.595457476 236305.71797319
24	249459 10314 233 328175 1.11 59.91 589 1 1 589 589
36	259773 23696 964 328350 1.241824401662 59.941827306039 588 0.099999759794 0.100012762319 58.800002665596 5.8800005349434
35	283469 23696 964 328350 1.241824401662 59.941827306039 588 0.099999759794 0.100012762319 58.800002665596 5.8800005349434
34	307165 16114 964 328350 1.241824401662 59.941827306039 588 1 1 588 588
33	323279 16114 964 328350 1.241824401662 59.941827306039 588 1 1 588 588
32	339393 859 5235 328729 2 60 59 0 0 0 0
31	340252 1214 5235 328729 2 60 59 0.023625 0.02625 1.546125 0.040523765625
30	341466 859 5235 328729 2 60 59 1 1 59 59
51	342325 18186 234 328176 1.11 59.91 589 -1.515739459891 1.5126010685353 -15.948776535075 995.29303528966
50	360511 19168 234 328176 1.11 59.91 589 -1.4731702669735 1.4434762629406 -12.051147120292 669.67352647222
49	379679 12670 234 328176 1.11 59.91 589 36.55 36.55 21527.95 786846.5725
48	392349 18482 234 328176 1.11 59.91 589 170.44185905457 2624.7639120343 823983.53583705 1448921690.2934
47	410831 18507 234 328176 1.11 59.91 589 40.378428751727 43.626244762177 24584.471273289 1026578.849713
45	429338 20337 234 328176 1.11 59.91 589 -0.017729423758816 0.015851883069203 0.11270041837562 0.060652348618838
44	449675 18500 234 328176 1.11 59.91 589 19.972823043039 20.044744098119 11784.995472384 235800.0568043
46	468175 10314 234 328176 1.11 59.91 589 2 2 1178 2356
58	478489 23711 1176 328562 1.281934122161 59.981937026255 588 0.099999759788 0.10001276258 58.800002665313 5.8800005348868
57	502200 23673 970 328356 1.241824481718 59.941827386092 588 0.099999759794 0.100012762315 58.800002665593 5.8800005349429
56	525873 16132 1176 328562 1.281934122161 59.981937026255 588 2 2 1176 2352
55	542005 16099 970 328356 1.241824481718 59.941827386092 588 2 2 1176 2352
54	558104 859 5236 328730 2 60 59 0 0 0 0
53	558963 1214 5236 328730 2 60 59 0.023625 0.02625 1.546125 0.040523765625
52	560177 859 5236 328730 2 60 59 2 2 118 236
73	561036 19104 235 328177 1.11 59.91 589 -1.4979584877477 1.4963276130332 -15.539927195214 974.15225996785
72	580140 19192 235 328177 1.11 59.91 589 -1.4632764912697 1.4357843220992 -11.868138130513 660.49499365845
71	599332 12670 235 328177 1.11 59.91 589 36.55 36.55 21527.95 786846.5725
70	612002 18492 235 328177 1.11 59.91 589 146.44186668396 2600.7848057781 809850.86101922 1409721940.8748
69	630494 18507 235 328177 1.11 59.91 589 40.387325075076 43.618106131484 24584.686398181 1026591.01598
67	649001 20512 235 328177 1.11 59.91 589 -0.015485115986692 0.01153880836609 -0.094613421528628 0.026680485289775
66	669513 18487 235 328177 1.11 59.91 589 19.970461244214 20.035617327715 11776.679120337 235467.3003578
68	688000 10314 235 328177 1.11 59.91 589 3 3 1767 5301
80	698314 23689 1040 328420 1.262751561773 59.962754466075 588 0.099999759792 0.100012763184 58.800002665521 5.8800005349284
79	722003 23689 976 328362 1.241824561773 59.941827466076 588 0.099999759793 0.100012762315 58.800002665522 5.8800005349287
78	745692 16102 1040 328420 1.262751561773 59.962754466075 588 3 3 1764 5292
77	761794 16114 976 328362 1.241824561773 59.941827466076 588 3 3 1764 5292
76	777908 859 5237 328731 2 60 59 0 0 0 0
75	778767 1214 5237 328731 2 60 59 0.023625 0.02625 1.546125 0.040523765625
74	779981 859 5237 328731 2 60 59 3 3 177 531
95	780840 19045 236 328178 1.11 59.91 589 -1.491674293889 1.4916957487663 -15.550103240361 958.92313333412
94	799885 19184 236 328178 1.11 59.91 589 -1.4604041419176 1.4323587546464 -11.636504175461 657.36405787492
93	819069 12670 236 328178 1.11 59.91 589 36.55 36.55 21527.95 786846.5725
92	831739 18507 236 328178 1.11 59.91 589 122.44186668396 2576.8148715176 795715.68862942 1371192221.9227
91	850246 18494 236 328178 1.11 59.91 589 40.391615558772 43.616107683445 24584.995586537 1026614.7259122
89	868740 20178 236 328178 1.11 59.91 589 -0.026047778893933 0.025125782458225 -0.19050697409487 0.19626740329586
88	888918 18485 236 328178 1.11 59.91 589 19.957670108008 20.053884465978 11779.178573559 235567.47724205
90	907403 10314 236 328178 1.11 59.91 589 4 4 2356 9424
102	917717 24274 904 328284 1.240527161496 59.940530065889 588 0.09999975978 0.100012763147 58.800002665612 5.8800005349466
101	941991 24288 982 328368 1.241824641829 59.941827546029 588 0.099999759794 0.100012762309 58.800002665419 5.8800005349081
100	966279 16694 904 328284 1.240527161496 59.940530065889 588 4 4 2352 9408
99	982973 16110 982 328368 1.241824641829 59.941827546029 588 4 4 2352 9408
98	999083 859 5238 328732 2 60 59 0 0 0 0
97	999942 1214 5238 328732 2 60 59 0.023625 0.02625 1.546125 0.040523765625
96	1001156 859 5238 328732 2 60 59 4 4 236 944
117	1002015 19680 237 328179 1.11 59.91 589 -1.4978823369274 1.4979373561971 -15.573916921244 972.57495836035
116	1021695 19756 237 328179 1.11 59.91 589 -1.4541166707247 1.4282739888493 -11.701856119143 653.54421028781
115	1041451 13259 237 328179 1.11 59.91 589 36.55 36.55 21527.95 786846.5725
114	1054710 19107 237 328179 1.11 59.91 589 98.44186668396 2552.8029845519 781582.31773816 1333345933.6326
113	1073817 19099 237 328179 1.11 59.91 589 40.394560283176 43.609944174317 24584.874183171 1026602.1840196
111	1092916 20710 237 328179 1.11 59.91 589 -0.033954328640412 0.034107718543055 0.23776840752335 0.36339076723111
110	1113626 19080 237 328179 1.11 59.91 589 19.974351177677 20.024425875536 11777.368463194 235494.83680917
112	1132706 10903 237 328179 1.11 59.91 589 5 5 2945 14725
124	1143609 24298 1242 328628 1.287391362327 59.987394266283 588 0.099999759784 0.100012762958 58.800002665175 5.8800005348592
123	1167907 24281 988 328374 1.241824721884 59.941827626125 588 0.099999759791 0.100012762314 58.80000266546 5.8800005349163
122	1192188 16710 1242 328628 1.287391362327 59.987394266283 588 5 5 2940 14700
121	1208898 16706 988 328374 1.241824721884 59.941827626125 588 5 5 2940 14700
120	1225604 918 5239 328733 2 60 59 0 0 0 0
119	1226522 1273 5239 328733 2 60 59 0.023625 0.02625 1.546125 0.040523765625
118	1227795 918 5239 328733 2 60 59 5 5 295 1475
139	1228713 19671 238 328180 1.11 59.91 589 -1.4890055542858 1.489129285795 -15.450979450471 953.17509016526
138	1248384 19756 238 328180 1.11 59.91 589 -1.4486611883129 1.4235063639234 -11.665360775499 647.39786186111
137	1268140 13259 238 328180 1.11 59.91 589 36.55 36.55 21527.95 786846.5725
136	1281399 19089 238 328180 1.11 59.91 589 74.44186668396 2528.8016948568 767448.16363529 1296176231.8826
135	1300488 19074 238 328180 1.11 59.91 589 40.400833441102 43.601859386286 24584.862532183 1026597.4536872
133	1319562 20768 238 328180 1.11 59.91 589 -0.018947290100726 0.018894223368456 0.12866954915497 0.10812242348029
132	1340330 19068 238 328180 1.11 59.91 589 19.987269513131 20.013796501852 11778.153869852 235526.18001149
134	1359398 10903 238 328180 1.11 59.91 589 6 6 3534 21204
146	1370301 24281 1106 328486 1.266713801939 59.966716706181 588 0.099999759788 0.100012762268 58.800002665461 5.8800005349165
145	1394582 24294 994 328380 1.241824801939 59.941827706184 588 0.099999759788 0.100012762316 58.800002665464 5.8800005349171
144	1418876 16695 1106 328486 1.266713801939 59.966716706181 588 6 6 3528 21168
143	1435571 16705 994 328380 1.241824801939 59.941827706184 588 6 6 3528 21168
142	1452276 918 5240 328734 2 60 59 0 0 0 0
141	1453194 1273 5240 328734 2 60 59 0.023625 0.02625 1.546125 0.040523765625
140	1454467 918 5240 328734 2 60 59 6 6 354 2124
161	1455385 19671 239 328181 1.11 59.91 589 -1.4963545137841 1.4965424010475 -15.5030246553 972.37101267995
160	1475056 19773 239 328181 1.11 59.91 589 -1.4519455830097 1.4281408622047 -11.799943825167 653.88203437969
159	1494829 13259 239 328181 1.11 59.91 589 36.55 36.55 21527.95 786846.5725
158	1508088 19094 239 328181 1.11 59.91 589 50.44186668396 2504.7958686492 753313.99925114 1259684520.4702
157	1527182 19088 239 328181 1.11 59.91 589 40.393942231967 43.606419142501 24584.799358325 1026596.0620271
155	1546270 20728 239 328181 1.11 59.91 589 -0.031834543456981 0.034197066618979 0.17982746569341 0.27842528860602
154	1566998 19063 239 328181 1.11 59.91 589 19.97740293488 20.020493075561 11778.163120675 235526.59112884
156	1586061 10903 239 328181 1.11 59.91 589 7 7 4123 28861
168	1596964 24314 1308 328694 1.289468522438 59.989471426419 588 0.099999759782 0.100012762609 58.8000026652 5.8800005348642
167	1621278 24280 1000 328386 1.241824881995 59.94182778626 588 0.099999759789 0.100012762317 58.800002665484 5.8800005349211
166	1645558 16716 1308 328694 1.289468522438 59.989471426419 588 7 7 4116 28812
165	1662274 16701 1000 328386 1.241824881995 59.94182778626 588 7 7 4116 28812
164	1678975 918 5241 328735 2 60 59 0 0 0 0
163	1679893 1273 5241 328735 2 60 59 0.023625 0.02625 1.546125 0.040523765625
162	1681166 918 5241 328735 2 60 59 7 7 413 2891
