file 1053483 1512140951                                         
version 2
run SinusoidalPosInjectionAttack-215-20171201-16:08:52-5339
attr CACCSpacing 20
attr attackAcc -30
attr attackPos 9
attr attackSpeed 150
attr attackStart 30
attr attacker 2
attr beaconInterval 0.1
attr configname SinusoidalPosInjectionAttack
attr controller 3
attr datetime 20171201-16:08:52
attr experiment SinusoidalPosInjectionAttack
attr fakeAcc "(2 == 4)"
attr fakePos "(2 == 2)"
attr fakeSpeed "(2 == 3)"
attr inifile omnetpp_215.ini
attr iterationvars "$attacker=2, $attackSpeed=150, $attackPos=9, $attackAcc=-30, $leaderSpeed=100, $controller=3, $CACCSpacing=20, $sController=\"CONSENSUS\", $attackStart=30, $0=15, $1=0.8, $nCars=8, $platoonSize=8, $nLanes=1, $beaconInterval=0.1, $priority=2, $packetSize=200, $ploegH=0.5, $leaderHeadway=1.2, $fakeSpeed=(2 == 3), $fakeAcc=(2 == 4), $fakePos=(2 == 2)"
attr iterationvarsf attacker=2,attackSpeed=150,attackPos=9,attackAcc=-30,leaderSpeed=100,controller=3,CACCSpacing=20,sController=CONSENSUS,attackStart=30,15,0.8,nCars=8,platoonSize=8,nLanes=1,beaconInterval=0.1,priority=2,packetSize=200,ploegH=0.5,leaderHeadway=1.2,fakeSpeed=(2_==_3),fakeAcc=(2_==_4),fakePos=(2_==_2)-
attr leaderHeadway 1.2
attr leaderSpeed 100
attr measurement "$attacker=2, $attackSpeed=150, $attackPos=9, $attackAcc=-30, $leaderSpeed=100, $controller=3, $CACCSpacing=20, $sController=\"CONSENSUS\", $attackStart=30, $0=15, $1=0.8, $nCars=8, $platoonSize=8, $nLanes=1, $beaconInterval=0.1, $priority=2, $packetSize=200, $ploegH=0.5, $leaderHeadway=1.2, $fakeSpeed=(2 == 3), $fakeAcc=(2 == 4), $fakePos=(2 == 2)"
attr nCars 8
attr nLanes 1
attr network scenario
attr packetSize 200
attr platoonSize 8
attr ploegH 0.5
attr priority 2
attr processid 5339
attr repetition 0
attr replication #0
attr resultdir results
attr runnumber 215
attr sController "\"CONSENSUS\""
attr seedset 0
param **.coreDebug false
param **.debug false
param **.headway 0.1s
param **.numberOfCars 8
param **.numberOfCarsPerPlatoon 8
param **.numberOfLanes 1
param **.numericController 3
param **.traffic.nCars 8
param **.traffic.nLanes 1
param **.traffic.platoonInsertDistance 15m
param **.traffic.platoonInsertHeadway 0.8s
param **.traffic.platoonInsertSpeed 100kmph
param **.traffic.platoonInsertTime "1 s"
param **.traffic.platoonLeaderHeadway 1.2s
param **.traffic.platoonSize 8
param **.traffic.platooningVType "\"vtypeauto\""
param **.traffic_type "\"PlatoonsTrafficManager\""
param *.**.nic.mac1609_4.bitrate 6Mbps
param *.**.nic.mac1609_4.txPower 100mW
param *.**.nic.mac1609_4.useServiceChannel false
param *.**.nic.phy80211p.analogueModels "xmldoc(\"config.xml\")"
param *.**.nic.phy80211p.decider "xmldoc(\"config.xml\")"
param *.**.nic.phy80211p.maxTXPower 100mW
param *.**.nic.phy80211p.sensitivity -94dBm
param *.**.nic.phy80211p.thermalNoise -95dBm
param *.**.nic.phy80211p.usePropagationDelay true
param *.**.nic.phy80211p.useThermalNoise true
param *.annotations.draw false
param *.connectionManager.alpha 2.0
param *.connectionManager.carrierFrequency "5.890e9 Hz"
param *.connectionManager.pMax 100mW
param *.connectionManager.sat -94dBm
param *.connectionManager.sendDirect true
param *.manager.autoShutdown true
param *.manager.commandLine "\"sumo --remote-port $port --seed $seed --configuration-file $configFile\""
param *.manager.configFile "\"./sumocfg/freeway.sumo.cfg\""
param *.manager.host "\"localhost\""
param *.manager.margin 25
param *.manager.moduleDisplayString "\"\""
param *.manager.moduleName "\"node\""
param *.manager.moduleType "\"Car\""
param *.manager.updateInterval 0.01s
param *.node[*].appl.attackStart 30s
param *.node[*].appl.attackerType 2
param *.node[*].appl.simulationDuration "60 s"
param *.node[*].appl_type "\"SimplePlatooningApp\""
param *.node[*].helper.nCars 8
param *.node[*].helper.nLanes 1
param *.node[*].helper.platoonSize 8
param *.node[*].helper_type "\"PositionHelper\""
param *.node[*].mobility.x 0
param *.node[*].mobility.y 0
param *.node[*].mobility.z 1.895
param *.node[*].prot.attackStart 30s
param *.node[*].prot.attackerType 2
param *.node[*].prot.attackingNode 3
param *.node[*].prot.beaconingInterval 0.1s
param *.node[*].prot.fakeAcc "(2 == 4)"
param *.node[*].prot.fakePos "(2 == 2)"
param *.node[*].prot.fakeSpeed "(2 == 3)"
param *.node[*].prot.maliciousAcc "-30 mpss"
param *.node[*].prot.maliciousSpeed 150kmph
param *.node[*].prot.packetSize 200
param *.node[*].prot.priority 2
param *.node[*].prot.shiftX "9 m"
param *.node[*].prot.useControllerAcceleration true
param *.node[*].protocol_type "\"SimplePlatooningBeaconing\""
param *.node[*].scenario.accHeadway 0.1s
param *.node[*].scenario.caccC1 0.5
param *.node[*].scenario.caccOmegaN "0.2 Hz"
param *.node[*].scenario.caccSpacing 20m
param *.node[*].scenario.caccXi 1
param *.node[*].scenario.controller "\"CONSENSUS\""
param *.node[*].scenario.engineTau "0.5 s"
param *.node[*].scenario.leaderHeadway 1.2s
param *.node[*].scenario.leaderSpeed 100kmph
param *.node[*].scenario.ploegH 0.5s
param *.node[*].scenario.ploegKd 0.7
param *.node[*].scenario.ploegKp 0.2
param *.node[*].scenario.useRealisticEngine false
param *.node[*].scenario_type "\"SinusoidalScenario\""
param *.node[*].unicast.packetLossRate 0
param *.obstacles.debug false
param *.playgroundSizeX 65000m
param *.playgroundSizeY 25000m
param *.playgroundSizeZ 50m
param *.world.use2D false
param *.world.useTorus false

vector 0  scenario.node[0].appl  distance  ETV
vector 1  scenario.node[0].appl  relativeSpeed  ETV
vector 2  scenario.node[0].appl  nodeId  ETV
vector 6  scenario.node[0].appl  acceleration  ETV
vector 7  scenario.node[0].appl  controllerAcceleration  ETV
vector 3  scenario.node[0].appl  speed  ETV
vector 4  scenario.node[0].appl  posx  ETV
vector 5  scenario.node[0].appl  posy  ETV
vector 22  scenario.node[1].appl  distance  ETV
vector 23  scenario.node[1].appl  relativeSpeed  ETV
vector 24  scenario.node[1].appl  nodeId  ETV
vector 28  scenario.node[1].appl  acceleration  ETV
vector 29  scenario.node[1].appl  controllerAcceleration  ETV
vector 25  scenario.node[1].appl  speed  ETV
vector 26  scenario.node[1].appl  posx  ETV
vector 27  scenario.node[1].appl  posy  ETV
vector 44  scenario.node[2].appl  distance  ETV
vector 45  scenario.node[2].appl  relativeSpeed  ETV
vector 46  scenario.node[2].appl  nodeId  ETV
vector 50  scenario.node[2].appl  acceleration  ETV
vector 51  scenario.node[2].appl  controllerAcceleration  ETV
vector 47  scenario.node[2].appl  speed  ETV
vector 48  scenario.node[2].appl  posx  ETV
vector 49  scenario.node[2].appl  posy  ETV
vector 66  scenario.node[3].appl  distance  ETV
vector 67  scenario.node[3].appl  relativeSpeed  ETV
vector 68  scenario.node[3].appl  nodeId  ETV
vector 72  scenario.node[3].appl  acceleration  ETV
vector 73  scenario.node[3].appl  controllerAcceleration  ETV
vector 69  scenario.node[3].appl  speed  ETV
vector 70  scenario.node[3].appl  posx  ETV
vector 71  scenario.node[3].appl  posy  ETV
vector 88  scenario.node[4].appl  distance  ETV
vector 89  scenario.node[4].appl  relativeSpeed  ETV
vector 90  scenario.node[4].appl  nodeId  ETV
vector 94  scenario.node[4].appl  acceleration  ETV
vector 95  scenario.node[4].appl  controllerAcceleration  ETV
vector 91  scenario.node[4].appl  speed  ETV
vector 92  scenario.node[4].appl  posx  ETV
vector 93  scenario.node[4].appl  posy  ETV
vector 110  scenario.node[5].appl  distance  ETV
vector 111  scenario.node[5].appl  relativeSpeed  ETV
vector 112  scenario.node[5].appl  nodeId  ETV
vector 116  scenario.node[5].appl  acceleration  ETV
vector 117  scenario.node[5].appl  controllerAcceleration  ETV
vector 113  scenario.node[5].appl  speed  ETV
vector 114  scenario.node[5].appl  posx  ETV
vector 115  scenario.node[5].appl  posy  ETV
vector 132  scenario.node[6].appl  distance  ETV
vector 133  scenario.node[6].appl  relativeSpeed  ETV
vector 134  scenario.node[6].appl  nodeId  ETV
vector 138  scenario.node[6].appl  acceleration  ETV
vector 139  scenario.node[6].appl  controllerAcceleration  ETV
vector 135  scenario.node[6].appl  speed  ETV
vector 136  scenario.node[6].appl  posx  ETV
vector 137  scenario.node[6].appl  posy  ETV
vector 154  scenario.node[7].appl  distance  ETV
vector 155  scenario.node[7].appl  relativeSpeed  ETV
vector 156  scenario.node[7].appl  nodeId  ETV
vector 160  scenario.node[7].appl  acceleration  ETV
vector 161  scenario.node[7].appl  controllerAcceleration  ETV
vector 157  scenario.node[7].appl  speed  ETV
vector 158  scenario.node[7].appl  posx  ETV
vector 159  scenario.node[7].appl  posy  ETV
vector 80  scenario.node[3].prot  frontDelay  ETV
vector 78  scenario.node[3].prot  frontDelayId  ETV
vector 58  scenario.node[2].prot  frontDelay  ETV
vector 56  scenario.node[2].prot  frontDelayId  ETV
vector 168  scenario.node[7].prot  frontDelay  ETV
vector 166  scenario.node[7].prot  frontDelayId  ETV
vector 35  scenario.node[1].prot  leaderDelay  ETV
vector 33  scenario.node[1].prot  leaderDelayId  ETV
vector 36  scenario.node[1].prot  frontDelay  ETV
vector 34  scenario.node[1].prot  frontDelayId  ETV
vector 57  scenario.node[2].prot  leaderDelay  ETV
vector 55  scenario.node[2].prot  leaderDelayId  ETV
vector 79  scenario.node[3].prot  leaderDelay  ETV
vector 77  scenario.node[3].prot  leaderDelayId  ETV
vector 101  scenario.node[4].prot  leaderDelay  ETV
vector 99  scenario.node[4].prot  leaderDelayId  ETV
vector 123  scenario.node[5].prot  leaderDelay  ETV
vector 121  scenario.node[5].prot  leaderDelayId  ETV
vector 145  scenario.node[6].prot  leaderDelay  ETV
vector 143  scenario.node[6].prot  leaderDelayId  ETV
vector 167  scenario.node[7].prot  leaderDelay  ETV
vector 165  scenario.node[7].prot  leaderDelayId  ETV
vector 124  scenario.node[5].prot  frontDelay  ETV
vector 122  scenario.node[5].prot  frontDelayId  ETV
vector 102  scenario.node[4].prot  frontDelay  ETV
vector 100  scenario.node[4].prot  frontDelayId  ETV
vector 146  scenario.node[6].prot  frontDelay  ETV
vector 144  scenario.node[6].prot  frontDelayId  ETV
vector 8  scenario.node[0].prot  nodeId  ETV
vector 9  scenario.node[0].prot  busyTime  ETV
vector 10  scenario.node[0].prot  collisions  ETV
vector 30  scenario.node[1].prot  nodeId  ETV
vector 31  scenario.node[1].prot  busyTime  ETV
vector 32  scenario.node[1].prot  collisions  ETV
vector 52  scenario.node[2].prot  nodeId  ETV
vector 53  scenario.node[2].prot  busyTime  ETV
vector 54  scenario.node[2].prot  collisions  ETV
vector 74  scenario.node[3].prot  nodeId  ETV
vector 75  scenario.node[3].prot  busyTime  ETV
vector 76  scenario.node[3].prot  collisions  ETV
vector 96  scenario.node[4].prot  nodeId  ETV
vector 97  scenario.node[4].prot  busyTime  ETV
vector 98  scenario.node[4].prot  collisions  ETV
vector 118  scenario.node[5].prot  nodeId  ETV
vector 119  scenario.node[5].prot  busyTime  ETV
vector 120  scenario.node[5].prot  collisions  ETV
vector 140  scenario.node[6].prot  nodeId  ETV
vector 141  scenario.node[6].prot  busyTime  ETV
vector 142  scenario.node[6].prot  collisions  ETV
vector 162  scenario.node[7].prot  nodeId  ETV
vector 163  scenario.node[7].prot  busyTime  ETV
vector 164  scenario.node[7].prot  collisions  ETV
7	11122 8807 232 206580 1.11 38.11 371 -1.5 1.5 4.7458936277759 598.40780381565
6	19929 11664 232 206580 1.11 38.11 371 -1.4722746794938 1.4513430531448 9.8555399205214 399.5001609573
5	31593 7503 232 206580 1.11 38.11 371 36.55 36.55 13560.05 495619.8275
4	39096 11178 232 206580 1.11 38.11 371 324.77320022556 1357.0796894178 312349.0245771 296022475.7992
3	50274 11171 232 206580 1.11 38.11 371 26.487975689908 29.742492528104 10351.19476558 289084.19309647
1	61445 6019 232 206580 1.11 38.11 371 0 0 0 0
0	67464 6390 232 206580 1.11 38.11 371 -1 -1 -371 371
2	73854 6019 232 206580 1.11 38.11 371 0 0 0 0
10	79873 528 5102 205880 2 38 37 0 0 0 0
9	80401 714 5102 205880 2 38 37 0.022969 0.02625 0.967969 0.025333824961
8	81115 491 5102 205880 2 38 37 0 0 0 0
29	81606 11970 233 206581 1.11 38.11 371 -1.9741825330129 1.9679183776638 16.551506798442 671.81310629144
28	93576 11993 233 206581 1.11 38.11 371 -1.7218030083651 1.712778885739 12.709919565483 475.88912051607
27	105569 7874 233 206581 1.11 38.11 371 36.55 36.55 13560.05 495619.8275
26	113443 11539 233 206581 1.11 38.11 371 283.55097122192 1314.8267716388 297021.89737393 270864581.79565
25	124982 11543 233 206581 1.11 38.11 371 26.386906932427 29.733432791865 10340.974395233 288558.84796758
23	136525 12123 233 206581 1.11 38.11 371 -1.2227231725612 1.2115321676642 10.121814947775 257.13424797781
22	148648 11542 233 206581 1.11 38.11 371 36.17694283834 38.677065071259 13842.922795763 516693.78985877
24	160190 6390 233 206581 1.11 38.11 371 1 1 371 371
36	166580 14754 1032 206267 1.254915637607 38.0548821239 369 0.099897850073 0.100092862866 36.899981336366 3.6899968939424
35	181334 14754 1032 206267 1.254915637607 38.0548821239 369 0.099897850073 0.100092862866 36.899981336366 3.6899968939424
34	196088 10002 1032 206267 1.254915637607 38.0548821239 369 1 1 369 369
33	206090 10002 1032 206267 1.254915637607 38.0548821239 369 1 1 369 369
32	216092 528 5103 205881 2 38 37 0 0 0 0
31	216620 751 5103 205881 2 38 37 0.022969 0.02625 0.967969 0.025333824961
30	217371 528 5103 205881 2 38 37 1 1 37 37
51	217899 12009 234 206582 1.11 38.11 371 -1.470892066307 1.4591979336599 12.407424841485 386.30859614358
50	229908 12056 234 206582 1.11 38.11 371 -1.2930964399892 1.2698646709769 9.6499975450946 268.07006512442
49	241964 7874 234 206582 1.11 38.11 371 36.55 36.55 13560.05 495619.8275
48	249838 11545 234 206582 1.11 38.11 371 242.32875747681 1273.7593156312 281698.45963384 246976033.50873
47	261383 11531 234 206582 1.11 38.11 371 26.7414705815 29.400439162132 10342.416638104 288503.00820757
45	272914 12246 234 206582 1.11 38.11 371 -0.38764012536485 0.35987169987295 -1.5693420662371 19.811816917166
44	285160 11536 234 206582 1.11 38.11 371 36.939715517707 37.874817987905 13839.466584952 516274.48240899
46	296696 6390 234 206582 1.11 38.11 371 2 2 742 1484
58	303086 14767 900 206129 1.229661125079 38.029653629267 369 0.099988735912 0.100001869417 36.899994354261 3.6899988785239
57	317853 14760 1038 206273 1.254915775109 38.054882260828 369 0.099897850073 0.10009286282 36.899981335792 3.6899968938276
56	332613 10005 900 206129 1.229661125079 38.029653629267 369 2 2 738 1476
55	342618 10010 1038 206273 1.254915775109 38.054882260828 369 2 2 738 1476
54	352628 528 5104 205882 2 38 37 0 0 0 0
53	353156 751 5104 205882 2 38 37 0.022969 0.02625 0.967969 0.025333824961
52	353907 528 5104 205882 2 38 37 2 2 74 148
73	354435 11996 235 206583 1.11 38.11 371 -1.5377957074449 1.5283122269944 12.835896063689 415.62371280834
72	366431 12034 235 206583 1.11 38.11 371 -1.3294202106678 1.3186880831064 10.25691725028 288.14455021172
71	378465 7874 235 206583 1.11 38.11 371 36.55 36.55 13560.05 495619.8275
70	386339 11536 235 206583 1.11 38.11 371 201.1065284729 1232.5573991244 266372.77278146 224341617.76141
69	397875 11535 235 206583 1.11 38.11 371 26.695691665073 29.342713140305 10342.641248912 288525.39540052
67	409410 12577 235 206583 1.11 38.11 371 -0.10270671785546 0.12549698694204 -0.32111078394928 1.1652381813517
66	421987 11538 235 206583 1.11 38.11 371 37.175800850482 37.545179653639 13841.69134459 516425.42171056
68	433525 6390 235 206583 1.11 38.11 371 3 3 1113 3339
80	439915 14807 832 206624 1.213907987576 38.113902224225 370 0.099988744065 0.100001869191 36.999996086722 3.6999992250182
79	454722 14779 1044 206279 1.254915912612 38.054882398275 369 0.099897850073 0.100092862807 36.899981335736 3.6899968938164
78	469501 10040 832 206624 1.213907987576 38.113902224225 370 3 3 1110 3330
77	479541 10013 1044 206279 1.254915912612 38.054882398275 369 3 3 1107 3321
76	489554 528 5105 205883 2 38 37 0 0 0 0
75	490082 751 5105 205883 2 38 37 0.022968 0.02625 0.967968 0.025333779024
74	490833 528 5105 205883 2 38 37 3 3 111 333
117	491361 12371 237 206585 1.11 38.11 371 -1.4308156633116 2.1492270038868 65.249809150489 411.46125344699
116	503732 12411 237 206585 1.11 38.11 371 -1.2579553277796 1.9332207194005 57.755920378251 300.28568141433
115	516143 8245 237 206585 1.11 38.11 371 36.55 36.55 13560.05 495619.8275
114	524388 11913 237 206585 1.11 38.11 371 118.66208572388 1164.4272492504 236009.82943337 183498311.72284
113	536301 11921 237 206585 1.11 38.11 371 26.774324762529 33.491310261888 10487.437826882 297006.49173387
111	548222 12799 237 206585 1.11 38.11 371 -0.044719198679743 4.4976530968074 229.17741610527 785.98003241059
110	561021 11917 237 206585 1.11 38.11 371 37.222221907592 60.073872468337 14606.227068435 585463.60743766
112	572938 6761 237 206585 1.11 38.11 371 5 5 1855 9275
124	579699 15122 1172 206413 1.265753012633 38.065758693384 369 0.099988765336 0.100001869131 36.900007530824 3.6900015137129
123	594821 15142 1056 206291 1.254916187617 38.054882626474 369 0.099897850073 0.100092862827 36.89998128893 3.6899968844552
122	609963 10373 1172 206413 1.265753012633 38.065758693384 369 5 5 1845 9225
121	620336 10378 1056 206291 1.254916187617 38.054882626474 369 5 5 1845 9225
120	630714 565 5107 205885 2 38 37 0 0 0 0
119	631279 788 5107 205885 2 38 37 0.022968 0.02625 0.967968 0.025333779024
118	632067 565 5107 205885 2 38 37 5 5 185 925
139	632632 12395 238 206586 1.11 38.11 371 -1.4213470413689 1.9697987528958 32.999715235664 383.09876099846
138	645027 12447 238 206586 1.11 38.11 371 -1.2279810906456 1.8358025502749 29.997897412275 270.356516605
137	657474 8245 238 206586 1.11 38.11 371 36.55 36.55 13560.05 495619.8275
136	665719 11925 238 206586 1.11 38.11 371 77.439864349365 1112.6582722681 220456.21327915 164135542.33308
135	677644 11913 238 206586 1.11 38.11 371 26.805603283588 30.735055408128 10381.005934628 290675.52192525
133	689557 12824 238 206586 1.11 38.11 371 -0.032981680885449 2.7474918639377 105.85433305016 229.42011056981
132	702381 11905 238 206586 1.11 38.11 371 37.222221374512 47.713851885243 14067.487516368 534755.97129203
134	714286 6761 238 206586 1.11 38.11 371 6 6 2226 13356
146	721047 15141 1312 206542 1.305163425141 38.105155894529 369 0.099988733819 0.100001869202 36.899994319461 3.6899988715639
145	736188 15151 1062 206297 1.254916325119 38.054882798605 369 0.099897850073 0.100092862826 36.899981323559 3.689996891381
144	751339 10384 1312 206542 1.305163425141 38.105155894529 369 6 6 2214 13284
143	761723 10381 1062 206297 1.254916325119 38.054882798605 369 6 6 2214 13284
142	772104 565 5108 205886 2 38 37 0 0 0 0
141	772669 788 5108 205886 2 38 37 0.022969 0.02625 0.967969 0.025333824961
140	773457 565 5108 205886 2 38 37 6 6 222 1332
161	774022 12389 239 206587 1.11 38.11 371 -1.3674315724168 1.5847628933891 18.63940494934 342.60549349415
160	786411 12447 239 206587 1.11 38.11 371 -1.196663167643 1.41310923878 14.768060375109 243.00274346724
159	798858 8245 239 206587 1.11 38.11 371 36.55 36.55 13560.05 495619.8275
158	807103 11925 239 206587 1.11 38.11 371 36.217641067505 1068.2228004002 205087.83155913 146454320.72208
157	819028 11913 239 206587 1.11 38.11 371 26.835987850248 29.216822095158 10348.33984337 288809.0922548
155	830941 12905 239 206587 1.11 38.11 371 -0.032905855784968 1.5066918533964 32.36611228437 30.209855435302
154	843846 11910 239 206587 1.11 38.11 371 37.222222738003 40.4051072016 13883.728398192 519644.27565744
156	855756 6761 239 206587 1.11 38.11 371 7 7 2597 18179
168	862517 15139 975 206204 1.254436812592 38.054429315161 369 0.099988739997 0.100001869451 36.899994352642 3.6899988781996
167	877656 15142 1068 206303 1.254916462622 38.054882946523 369 0.099897850073 0.100092862826 36.899981333974 3.689996893464
166	892798 10377 975 206204 1.254436812592 38.054429315161 369 7 7 2583 18081
165	903175 10375 1068 206303 1.254916462622 38.054882946523 369 7 7 2583 18081
164	913550 565 5109 205887 2 38 37 0 0 0 0
163	914115 788 5109 205887 2 38 37 0.022969 0.02625 0.967969 0.025333824961
162	914903 565 5109 205887 2 38 37 7 7 259 1813
88	915468 11566 236 206656 1.11 38.12 372 0 37.452891988196 12791.612211224 463105.76716451
89	927034 12490 236 206656 1.11 38.12 372 -7.4696748508181 0.052129820560495 -382.3915977817 2327.9018001151
90	939524 6408 236 206656 1.11 38.12 372 4 4 1488 5952
91	945932 11579 236 206656 1.11 38.12 372 26.749284686787 36.245655775142 10753.706258446 312902.76964966
92	957511 11559 236 206656 1.11 38.12 372 159.88431472778 1228.9185856013 253333.57554292 206909566.01489
93	969070 7896 236 206656 1.11 38.12 372 36.55 36.55 13596.6 496955.73
94	976966 12045 236 206656 1.11 38.12 372 -1.2930775215906 2.4999999999999 85.317152258676 411.84516119072
95	989011 12011 236 206656 1.11 38.12 372 -1.4973582777454 4.0343940966378 99.019251820676 685.18258880071
96	1001022 528 5106 205884 2 38 37 4 4 148 592
97	1001550 751 5106 205884 2 38 37 0.022969 0.02625 0.967969 0.025333824961
98	1002301 528 5106 205884 2 38 37 0 0 0 0
99	1002829 10013 1050 206285 1.254916050114 38.054882413114 369 4 4 1476 5904
100	1012842 10376 1246 206476 1.303554150136 38.103559508119 369 4 4 1476 5904
101	1023218 15143 1050 206285 1.254916050114 38.054882413114 369 0.099897850073 0.100092862824 36.899981213073 3.6899968692838
102	1038361 15122 1246 206476 1.303554150136 38.103559508119 369 0.099988748574 0.100001869176 36.900007208056 3.6900014491604
