file 1094716 1512141073                                         
version 2
run SinusoidalPosInjectionAttack-239-20171201-16:10:43-14650
attr CACCSpacing 20
attr attackAcc -30
attr attackPos 9
attr attackSpeed 150
attr attackStart 30
attr attacker 2
attr beaconInterval 0.1
attr configname SinusoidalPosInjectionAttack
attr controller 3
attr datetime 20171201-16:10:43
attr experiment SinusoidalPosInjectionAttack
attr fakeAcc "(2 == 4)"
attr fakePos "(2 == 2)"
attr fakeSpeed "(2 == 3)"
attr inifile omnetpp_239.ini
attr iterationvars "$attacker=2, $attackSpeed=150, $attackPos=9, $attackAcc=-30, $leaderSpeed=150, $controller=3, $CACCSpacing=20, $sController=\"CONSENSUS\", $attackStart=30, $0=15, $1=0.8, $nCars=8, $platoonSize=8, $nLanes=1, $beaconInterval=0.1, $priority=2, $packetSize=200, $ploegH=0.5, $leaderHeadway=1.2, $fakeSpeed=(2 == 3), $fakeAcc=(2 == 4), $fakePos=(2 == 2)"
attr iterationvarsf attacker=2,attackSpeed=150,attackPos=9,attackAcc=-30,leaderSpeed=150,controller=3,CACCSpacing=20,sController=CONSENSUS,attackStart=30,15,0.8,nCars=8,platoonSize=8,nLanes=1,beaconInterval=0.1,priority=2,packetSize=200,ploegH=0.5,leaderHeadway=1.2,fakeSpeed=(2_==_3),fakeAcc=(2_==_4),fakePos=(2_==_2)-
attr leaderHeadway 1.2
attr leaderSpeed 150
attr measurement "$attacker=2, $attackSpeed=150, $attackPos=9, $attackAcc=-30, $leaderSpeed=150, $controller=3, $CACCSpacing=20, $sController=\"CONSENSUS\", $attackStart=30, $0=15, $1=0.8, $nCars=8, $platoonSize=8, $nLanes=1, $beaconInterval=0.1, $priority=2, $packetSize=200, $ploegH=0.5, $leaderHeadway=1.2, $fakeSpeed=(2 == 3), $fakeAcc=(2 == 4), $fakePos=(2 == 2)"
attr nCars 8
attr nLanes 1
attr network scenario
attr packetSize 200
attr platoonSize 8
attr ploegH 0.5
attr priority 2
attr processid 14650
attr repetition 4
attr replication #4
attr resultdir results
attr runnumber 239
attr sController "\"CONSENSUS\""
attr seedset 4
param **.coreDebug false
param **.debug false
param **.headway 0.1s
param **.numberOfCars 8
param **.numberOfCarsPerPlatoon 8
param **.numberOfLanes 1
param **.numericController 3
param **.traffic.nCars 8
param **.traffic.nLanes 1
param **.traffic.platoonInsertDistance 15m
param **.traffic.platoonInsertHeadway 0.8s
param **.traffic.platoonInsertSpeed 150kmph
param **.traffic.platoonInsertTime "1 s"
param **.traffic.platoonLeaderHeadway 1.2s
param **.traffic.platoonSize 8
param **.traffic.platooningVType "\"vtypeauto\""
param **.traffic_type "\"PlatoonsTrafficManager\""
param *.**.nic.mac1609_4.bitrate 6Mbps
param *.**.nic.mac1609_4.txPower 100mW
param *.**.nic.mac1609_4.useServiceChannel false
param *.**.nic.phy80211p.analogueModels "xmldoc(\"config.xml\")"
param *.**.nic.phy80211p.decider "xmldoc(\"config.xml\")"
param *.**.nic.phy80211p.maxTXPower 100mW
param *.**.nic.phy80211p.sensitivity -94dBm
param *.**.nic.phy80211p.thermalNoise -95dBm
param *.**.nic.phy80211p.usePropagationDelay true
param *.**.nic.phy80211p.useThermalNoise true
param *.annotations.draw false
param *.connectionManager.alpha 2.0
param *.connectionManager.carrierFrequency "5.890e9 Hz"
param *.connectionManager.pMax 100mW
param *.connectionManager.sat -94dBm
param *.connectionManager.sendDirect true
param *.manager.autoShutdown true
param *.manager.commandLine "\"sumo --remote-port $port --seed $seed --configuration-file $configFile\""
param *.manager.configFile "\"./sumocfg/freeway.sumo.cfg\""
param *.manager.host "\"localhost\""
param *.manager.margin 25
param *.manager.moduleDisplayString "\"\""
param *.manager.moduleName "\"node\""
param *.manager.moduleType "\"Car\""
param *.manager.updateInterval 0.01s
param *.node[*].appl.attackStart 30s
param *.node[*].appl.attackerType 2
param *.node[*].appl.simulationDuration "60 s"
param *.node[*].appl_type "\"SimplePlatooningApp\""
param *.node[*].helper.nCars 8
param *.node[*].helper.nLanes 1
param *.node[*].helper.platoonSize 8
param *.node[*].helper_type "\"PositionHelper\""
param *.node[*].mobility.x 0
param *.node[*].mobility.y 0
param *.node[*].mobility.z 1.895
param *.node[*].prot.attackStart 30s
param *.node[*].prot.attackerType 2
param *.node[*].prot.attackingNode 3
param *.node[*].prot.beaconingInterval 0.1s
param *.node[*].prot.fakeAcc "(2 == 4)"
param *.node[*].prot.fakePos "(2 == 2)"
param *.node[*].prot.fakeSpeed "(2 == 3)"
param *.node[*].prot.maliciousAcc "-30 mpss"
param *.node[*].prot.maliciousSpeed 150kmph
param *.node[*].prot.packetSize 200
param *.node[*].prot.priority 2
param *.node[*].prot.shiftX "9 m"
param *.node[*].prot.useControllerAcceleration true
param *.node[*].protocol_type "\"SimplePlatooningBeaconing\""
param *.node[*].scenario.accHeadway 0.1s
param *.node[*].scenario.caccC1 0.5
param *.node[*].scenario.caccOmegaN "0.2 Hz"
param *.node[*].scenario.caccSpacing 20m
param *.node[*].scenario.caccXi 1
param *.node[*].scenario.controller "\"CONSENSUS\""
param *.node[*].scenario.engineTau "0.5 s"
param *.node[*].scenario.leaderHeadway 1.2s
param *.node[*].scenario.leaderSpeed 150kmph
param *.node[*].scenario.ploegH 0.5s
param *.node[*].scenario.ploegKd 0.7
param *.node[*].scenario.ploegKp 0.2
param *.node[*].scenario.useRealisticEngine false
param *.node[*].scenario_type "\"SinusoidalScenario\""
param *.node[*].unicast.packetLossRate 0
param *.obstacles.debug false
param *.playgroundSizeX 65000m
param *.playgroundSizeY 25000m
param *.playgroundSizeZ 50m
param *.world.use2D false
param *.world.useTorus false

vector 0  scenario.node[0].appl  distance  ETV
vector 1  scenario.node[0].appl  relativeSpeed  ETV
vector 2  scenario.node[0].appl  nodeId  ETV
vector 6  scenario.node[0].appl  acceleration  ETV
vector 7  scenario.node[0].appl  controllerAcceleration  ETV
vector 3  scenario.node[0].appl  speed  ETV
vector 4  scenario.node[0].appl  posx  ETV
vector 5  scenario.node[0].appl  posy  ETV
vector 22  scenario.node[1].appl  distance  ETV
vector 23  scenario.node[1].appl  relativeSpeed  ETV
vector 24  scenario.node[1].appl  nodeId  ETV
vector 28  scenario.node[1].appl  acceleration  ETV
vector 29  scenario.node[1].appl  controllerAcceleration  ETV
vector 25  scenario.node[1].appl  speed  ETV
vector 26  scenario.node[1].appl  posx  ETV
vector 27  scenario.node[1].appl  posy  ETV
vector 44  scenario.node[2].appl  distance  ETV
vector 45  scenario.node[2].appl  relativeSpeed  ETV
vector 46  scenario.node[2].appl  nodeId  ETV
vector 50  scenario.node[2].appl  acceleration  ETV
vector 51  scenario.node[2].appl  controllerAcceleration  ETV
vector 47  scenario.node[2].appl  speed  ETV
vector 48  scenario.node[2].appl  posx  ETV
vector 49  scenario.node[2].appl  posy  ETV
vector 66  scenario.node[3].appl  distance  ETV
vector 67  scenario.node[3].appl  relativeSpeed  ETV
vector 68  scenario.node[3].appl  nodeId  ETV
vector 72  scenario.node[3].appl  acceleration  ETV
vector 73  scenario.node[3].appl  controllerAcceleration  ETV
vector 69  scenario.node[3].appl  speed  ETV
vector 70  scenario.node[3].appl  posx  ETV
vector 71  scenario.node[3].appl  posy  ETV
vector 88  scenario.node[4].appl  distance  ETV
vector 89  scenario.node[4].appl  relativeSpeed  ETV
vector 90  scenario.node[4].appl  nodeId  ETV
vector 94  scenario.node[4].appl  acceleration  ETV
vector 95  scenario.node[4].appl  controllerAcceleration  ETV
vector 91  scenario.node[4].appl  speed  ETV
vector 92  scenario.node[4].appl  posx  ETV
vector 93  scenario.node[4].appl  posy  ETV
vector 110  scenario.node[5].appl  distance  ETV
vector 111  scenario.node[5].appl  relativeSpeed  ETV
vector 112  scenario.node[5].appl  nodeId  ETV
vector 116  scenario.node[5].appl  acceleration  ETV
vector 117  scenario.node[5].appl  controllerAcceleration  ETV
vector 113  scenario.node[5].appl  speed  ETV
vector 114  scenario.node[5].appl  posx  ETV
vector 115  scenario.node[5].appl  posy  ETV
vector 132  scenario.node[6].appl  distance  ETV
vector 133  scenario.node[6].appl  relativeSpeed  ETV
vector 134  scenario.node[6].appl  nodeId  ETV
vector 138  scenario.node[6].appl  acceleration  ETV
vector 139  scenario.node[6].appl  controllerAcceleration  ETV
vector 135  scenario.node[6].appl  speed  ETV
vector 136  scenario.node[6].appl  posx  ETV
vector 137  scenario.node[6].appl  posy  ETV
vector 154  scenario.node[7].appl  distance  ETV
vector 155  scenario.node[7].appl  relativeSpeed  ETV
vector 156  scenario.node[7].appl  nodeId  ETV
vector 160  scenario.node[7].appl  acceleration  ETV
vector 161  scenario.node[7].appl  controllerAcceleration  ETV
vector 157  scenario.node[7].appl  speed  ETV
vector 158  scenario.node[7].appl  posx  ETV
vector 159  scenario.node[7].appl  posy  ETV
vector 102  scenario.node[4].prot  frontDelay  ETV
vector 100  scenario.node[4].prot  frontDelayId  ETV
vector 35  scenario.node[1].prot  leaderDelay  ETV
vector 33  scenario.node[1].prot  leaderDelayId  ETV
vector 36  scenario.node[1].prot  frontDelay  ETV
vector 34  scenario.node[1].prot  frontDelayId  ETV
vector 57  scenario.node[2].prot  leaderDelay  ETV
vector 55  scenario.node[2].prot  leaderDelayId  ETV
vector 79  scenario.node[3].prot  leaderDelay  ETV
vector 77  scenario.node[3].prot  leaderDelayId  ETV
vector 101  scenario.node[4].prot  leaderDelay  ETV
vector 99  scenario.node[4].prot  leaderDelayId  ETV
vector 123  scenario.node[5].prot  leaderDelay  ETV
vector 121  scenario.node[5].prot  leaderDelayId  ETV
vector 145  scenario.node[6].prot  leaderDelay  ETV
vector 143  scenario.node[6].prot  leaderDelayId  ETV
vector 167  scenario.node[7].prot  leaderDelay  ETV
vector 165  scenario.node[7].prot  leaderDelayId  ETV
vector 80  scenario.node[3].prot  frontDelay  ETV
vector 78  scenario.node[3].prot  frontDelayId  ETV
vector 146  scenario.node[6].prot  frontDelay  ETV
vector 144  scenario.node[6].prot  frontDelayId  ETV
vector 58  scenario.node[2].prot  frontDelay  ETV
vector 56  scenario.node[2].prot  frontDelayId  ETV
vector 124  scenario.node[5].prot  frontDelay  ETV
vector 122  scenario.node[5].prot  frontDelayId  ETV
vector 168  scenario.node[7].prot  frontDelay  ETV
vector 166  scenario.node[7].prot  frontDelayId  ETV
vector 8  scenario.node[0].prot  nodeId  ETV
vector 9  scenario.node[0].prot  busyTime  ETV
vector 10  scenario.node[0].prot  collisions  ETV
vector 30  scenario.node[1].prot  nodeId  ETV
vector 31  scenario.node[1].prot  busyTime  ETV
vector 32  scenario.node[1].prot  collisions  ETV
vector 52  scenario.node[2].prot  nodeId  ETV
vector 53  scenario.node[2].prot  busyTime  ETV
vector 54  scenario.node[2].prot  collisions  ETV
vector 74  scenario.node[3].prot  nodeId  ETV
vector 75  scenario.node[3].prot  busyTime  ETV
vector 76  scenario.node[3].prot  collisions  ETV
vector 96  scenario.node[4].prot  nodeId  ETV
vector 97  scenario.node[4].prot  busyTime  ETV
vector 98  scenario.node[4].prot  collisions  ETV
vector 118  scenario.node[5].prot  nodeId  ETV
vector 119  scenario.node[5].prot  busyTime  ETV
vector 120  scenario.node[5].prot  collisions  ETV
vector 140  scenario.node[6].prot  nodeId  ETV
vector 141  scenario.node[6].prot  busyTime  ETV
vector 142  scenario.node[6].prot  collisions  ETV
vector 162  scenario.node[7].prot  nodeId  ETV
vector 163  scenario.node[7].prot  busyTime  ETV
vector 164  scenario.node[7].prot  collisions  ETV
7	11124 9118 232 214386 1.11 39.51 385 -1.5 1.5 -15.362562510397 627.71540589296
6	20242 12110 232 214386 1.11 39.51 385 -1.4722746794739 1.4513430531451 -8.6037559371285 424.06969903237
5	32352 7797 232 214386 1.11 39.51 385 36.55 36.55 14071.75 514322.4625
4	40149 11603 232 214386 1.11 39.51 385 416.77518730124 2021.5125817751 469731.83530798 656033779.79312
3	51752 11589 232 214386 1.11 39.51 385 40.376864578797 43.631381416411 16088.749688449 672613.87307402
1	63341 6257 232 214386 1.11 39.51 385 0 0 0 0
0	69598 6642 232 214386 1.11 39.51 385 -1 -1 -385 385
2	76240 6257 232 214386 1.11 39.51 385 0 0 0 0
10	82497 544 5234 211590 2 39 38 0 0 0 0
9	83041 735 5234 211590 2 39 38 0.023625 0.02625 0.994875 0.026053453125
8	83776 506 5234 211590 2 39 38 0 0 0 0
29	84282 12443 233 214387 1.11 39.51 385 -1.9530783461109 1.9468559657313 -4.7724256809533 693.45861520558
28	96725 12475 233 214387 1.11 39.51 385 -1.7217025271862 1.7126829488774 3.3403461990758 489.4110973314
27	109200 8182 233 214387 1.11 39.51 385 36.55 36.55 14071.75 514322.4625
26	117382 11984 233 214387 1.11 39.51 385 364.44187431335 1969.4945397025 449543.95677286 607849208.71037
25	129366 11984 233 214387 1.11 39.51 385 40.275798883424 43.622318140251 16092.322597896 672967.81888358
23	141350 12537 233 214387 1.11 39.51 385 -1.2227051487147 1.2115141084231 -3.4868718874965 271.38635793311
22	153887 11992 233 214387 1.11 39.51 385 47.288055367598 49.788173294761 18647.949993314 903420.83382384
24	165879 6642 233 214387 1.11 39.51 385 1 1 385 385
36	172521 15390 964 214562 1.241827236957 39.541815764068 384 0.099988689249 0.10000185683 38.399990367546 3.8399980814745
35	187911 15390 964 214562 1.241827236957 39.541815764068 384 0.099988689249 0.10000185683 38.399990367546 3.8399980814745
34	203301 10429 964 214562 1.241827236957 39.541815764068 384 1 1 384 384
33	213730 10429 964 214562 1.241827236957 39.541815764068 384 1 1 384 384
32	224159 544 5235 211591 2 39 38 0 0 0 0
31	224703 773 5235 211591 2 39 38 0.023625 0.02625 0.994875 0.026053453125
30	225476 544 5235 211591 2 39 38 1 1 38 38
51	226020 12501 234 214388 1.11 39.51 385 -1.419412899753 1.4080875269023 -3.8962363364713 380.23153203012
50	238521 12546 234 214388 1.11 39.51 385 -1.2931899160641 1.2700752328719 2.093481228021 276.26614643116
49	251067 8182 234 214388 1.11 39.51 385 36.55 36.55 14071.75 514322.4625
48	259249 11974 234 214388 1.11 39.51 385 312.1085308075 1916.8994948158 429364.4000463 561803106.17147
47	271223 11993 234 214388 1.11 39.51 385 40.629493345304 43.290052691328 16089.658814776 672601.77844391
45	283216 12769 234 214388 1.11 39.51 385 -0.38763611912766 0.36020136044958 2.6303796582056 21.135624405936
44	295985 11983 234 214388 1.11 39.51 385 48.051037875431 48.985798009612 18639.503450893 902437.48463963
46	307968 6642 234 214388 1.11 39.51 385 2 2 770 1540
58	314610 15352 1176 214217 1.281937808044 39.481937506729 383 0.099988717933 0.100001857166 38.30000153912 3.8300003156619
57	329962 15374 970 214568 1.241827411522 39.541815939519 384 0.099988689297 0.100001856932 38.399990368432 3.8399980816517
56	345336 10407 1176 214217 1.281937808044 39.481937506729 383 2 2 766 1532
55	355743 10419 970 214568 1.241827411522 39.541815939519 384 2 2 768 1536
54	366162 544 5236 211592 2 39 38 0 0 0 0
53	366706 773 5236 211592 2 39 38 0.023625 0.02625 0.994875 0.026053453125
52	367479 544 5236 211592 2 39 38 2 2 76 152
73	368023 12477 235 214389 1.11 39.51 385 -1.4974842844089 1.4892392168368 -4.6582189640618 416.84742915991
72	380500 12525 235 214389 1.11 39.51 385 -1.3293509263768 1.3186957661595 1.7140117704649 297.33171213953
71	393025 8182 235 214389 1.11 39.51 385 36.55 36.55 14071.75 514322.4625
70	401207 11985 235 214389 1.11 39.51 385 259.77520256042 1864.6070357019 409184.41825906 517861824.2123
69	413192 11999 235 214389 1.11 39.51 385 40.583929150312 43.232110404692 16090.05475229 672645.23204466
67	425191 13064 235 214389 1.11 39.51 385 -0.09967044142293 0.12238306526972 -0.416872326567 1.1092886259059
66	438255 11981 235 214389 1.11 39.51 385 48.284005377987 48.653939846562 18639.98970599 902469.47974206
68	450236 6642 235 214389 1.11 39.51 385 3 3 1155 3465
80	456878 15374 1040 214632 1.262754586087 39.562756113954 384 0.099988708135 0.100001856914 38.400003368302 3.8400006815025
79	472252 15381 976 214574 1.241827586088 39.541816113951 384 0.099988689308 0.100001856914 38.399990368298 3.8399980816249
78	487633 10427 1040 214632 1.262754586087 39.562756113954 384 3 3 1152 3456
77	498060 10427 976 214574 1.241827586088 39.541816113951 384 3 3 1152 3456
76	508487 544 5237 211593 2 39 38 0 0 0 0
75	509031 773 5237 211593 2 39 38 0.023625 0.02625 0.994875 0.026053453125
74	509804 544 5237 211593 2 39 38 3 3 114 342
117	510348 12874 237 214391 1.11 39.51 385 -1.4031854729185 2.1828457343154 60.527766092139 410.10301612065
116	523222 12926 237 214391 1.11 39.51 385 -1.2577835664239 1.9306307195968 57.005249761045 304.05653694858
115	536148 8567 237 214391 1.11 39.51 385 36.55 36.55 14071.75 514322.4625
114	544715 12372 237 214391 1.11 39.51 385 155.1085308075 1781.4162721622 369364.34302463 438127649.20314
113	557087 12377 237 214391 1.11 39.51 385 40.663606860307 47.728657121438 16306.741792361 691623.63966643
111	569464 13232 237 214391 1.11 39.51 385 -0.04504471317167 4.4958496530231 264.01851514665 872.89028099714
110	582696 12379 237 214391 1.11 39.51 385 48.33332824707 74.68990550187 19751.117642423 1030587.0269238
112	595075 7027 237 214391 1.11 39.51 385 5 5 1925 9625
124	602102 15692 1242 214289 1.28739533174 39.4873949592 383 0.099988698405 0.100001857181 38.300001467895 3.8300003014186
123	617794 15761 988 214586 1.241827935218 39.541816390893 384 0.099988687473 0.100001856947 38.39999029611 3.8399980671873
122	633555 10759 1242 214289 1.28739533174 39.4873949592 383 5 5 1915 9575
121	644314 10815 988 214586 1.241827935218 39.541816390893 384 5 5 1920 9600
120	655129 582 5239 211595 2 39 38 0 0 0 0
119	655711 811 5239 211595 2 39 38 0.023625 0.02625 0.994875 0.026053453125
118	656522 582 5239 211595 2 39 38 5 5 190 950
139	657104 12886 238 214392 1.11 39.51 385 -1.3783875647008 2.0266448348772 29.22940220655 372.9077071386
138	669990 12940 238 214392 1.11 39.51 385 -1.2266739528634 1.8388989402055 30.91615900932 273.72494480689
137	682930 8567 238 214392 1.11 39.51 385 36.55 36.55 14071.75 514322.4625
136	691497 12358 238 214392 1.11 39.51 385 102.77520256042 1714.7642062674 348779.88692021 399131840.19103
135	703855 12376 238 214392 1.11 39.51 385 40.69471003151 45.022293990889 16162.640659887 678850.38160984
133	716231 13293 238 214392 1.11 39.51 385 -0.032679620066972 2.7463653155331 143.53107997638 330.92788985917
132	729524 12368 238 214392 1.11 39.51 385 48.33332824707 62.599616289416 19041.574081773 945021.76650253
134	741892 7027 238 214392 1.11 39.51 385 6 6 2310 13860
146	748919 15797 1106 214698 1.266704109783 39.566705613291 384 0.099988693231 0.100001856956 38.399990343943 3.8399980767535
145	764716 15763 994 214592 1.241828109783 39.541816613483 384 0.099988688349 0.100001856957 38.399990344135 3.8399980767923
144	780479 10832 1106 214698 1.266704109783 39.566705613291 384 6 6 2304 13824
143	791311 10804 994 214592 1.241828109783 39.541816613483 384 6 6 2304 13824
142	802115 582 5240 211596 2 39 38 0 0 0 0
141	802697 811 5240 211596 2 39 38 0.023625 0.02625 0.994875 0.026053453125
140	803508 582 5240 211596 2 39 38 6 6 228 1368
161	804090 12915 239 214393 1.11 39.51 385 -1.3359029140378 1.5694597046773 9.5982970483782 335.40582511117
160	817005 12963 239 214393 1.11 39.51 385 -1.1959394935509 1.4123374105644 12.252577003005 246.00516347332
159	829968 8567 239 214393 1.11 39.51 385 36.55 36.55 14071.75 514322.4625
158	838535 12377 239 214393 1.11 39.51 385 50.44186668396 1656.8246402899 328494.247385 363273424.45866
157	850912 12374 239 214393 1.11 39.51 385 40.725917275071 43.321279586843 16105.928556196 673957.45079794
155	863286 13393 239 214393 1.11 39.51 385 -0.033578650429568 1.8584412155933 56.402942100963 71.652148576569
154	876679 12370 239 214393 1.11 39.51 385 48.333331472811 53.902515994491 18744.505293137 912942.42888544
156	889049 7027 239 214393 1.11 39.51 385 7 7 2695 18865
168	896076 15712 1308 214343 1.28947268087 39.489472374344 383 0.099988717693 0.100001857201 38.300001533909 3.8300003146196
167	911788 15757 1000 214598 1.241828284348 39.541816806934 384 0.099988688966 0.100001856965 38.399990363021 3.8399980805695
166	927545 10768 1308 214343 1.28947268087 39.489472374344 383 7 7 2681 18767
165	938313 10802 1000 214598 1.241828284348 39.541816806934 384 7 7 2688 18816
164	949115 582 5241 211597 2 39 38 0 0 0 0
163	949697 811 5241 211597 2 39 38 0.023625 0.02625 0.994875 0.026053453125
162	950508 582 5241 211597 2 39 38 7 7 266 1862
88	951090 12012 236 214736 1.11 39.57 386 0 48.563812547194 16993.291332809 793797.61508061
89	963102 13009 236 214736 1.11 39.57 386 -7.7696973972987 0.052133973138695 -489.28933678604 3145.7259178308
90	976111 6660 236 214736 1.11 39.57 386 4 4 1544 6176
91	982771 12033 236 214736 1.11 39.57 386 40.637839830943 50.302345484289 16621.157496068 718457.35004989
92	994804 12025 236 214736 1.11 39.57 386 207.44185905457 1863.1285039623 392523.8854802 485225997.78097
93	1006829 8204 236 214736 1.11 39.57 386 36.55 36.55 14108.3 515658.365
94	1015033 12555 236 214736 1.11 39.57 386 -1.2921860285658 2.4999999999999 78.574556758824 419.38667045328
95	1027588 12507 236 214736 1.11 39.57 386 -1.4619047245817 4.1540239567586 95.06467019448 719.04735249059
96	1040095 544 5238 211594 2 39 38 4 4 152 608
97	1040639 773 5238 211594 2 39 38 0.023625 0.02625 0.994875 0.026053453125
98	1041412 544 5238 211594 2 39 38 0 0 0 0
99	1041956 10419 982 214580 1.241827760653 39.541816128035 384 4 4 1536 6144
100	1052375 10818 904 214496 1.240529713261 39.540531081481 384 4 4 1536 6144
101	1063193 15750 982 214580 1.241827760653 39.541816128035 384 0.099988686717 0.100001856931 38.399990207817 3.8399980495287
102	1078943 15773 904 214496 1.240529713261 39.540531081481 384 0.09998870165 0.100001857268 38.400003208655 3.8400006495736
