version 2
run SinusoidalPosInjectionAttack-35-20171201-15:53:50-74561
attr CACCSpacing 20
attr attackAcc -30
attr attackPos 3
attr attackSpeed 150
attr attackStart 30
attr attacker 2
attr beaconInterval 0.1
attr configname SinusoidalPosInjectionAttack
attr controller 3
attr datetime 20171201-15:53:50
attr experiment SinusoidalPosInjectionAttack
attr fakeAcc "(2 == 4)"
attr fakePos "(2 == 2)"
attr fakeSpeed "(2 == 3)"
attr inifile omnetpp_35.ini
attr iterationvars "$attacker=2, $attackSpeed=150, $attackPos=3, $attackAcc=-30, $leaderSpeed=100, $controller=3, $CACCSpacing=20, $sController=\"CONSENSUS\", $attackStart=30, $0=15, $1=0.8, $nCars=8, $platoonSize=8, $nLanes=1, $beaconInterval=0.1, $priority=2, $packetSize=200, $ploegH=0.5, $leaderHeadway=1.2, $fakeSpeed=(2 == 3), $fakeAcc=(2 == 4), $fakePos=(2 == 2)"
attr iterationvarsf attacker=2,attackSpeed=150,attackPos=3,attackAcc=-30,leaderSpeed=100,controller=3,CACCSpacing=20,sController=CONSENSUS,attackStart=30,15,0.8,nCars=8,platoonSize=8,nLanes=1,beaconInterval=0.1,priority=2,packetSize=200,ploegH=0.5,leaderHeadway=1.2,fakeSpeed=(2_==_3),fakeAcc=(2_==_4),fakePos=(2_==_2)-
attr leaderHeadway 1.2
attr leaderSpeed 100
attr measurement "$attacker=2, $attackSpeed=150, $attackPos=3, $attackAcc=-30, $leaderSpeed=100, $controller=3, $CACCSpacing=20, $sController=\"CONSENSUS\", $attackStart=30, $0=15, $1=0.8, $nCars=8, $platoonSize=8, $nLanes=1, $beaconInterval=0.1, $priority=2, $packetSize=200, $ploegH=0.5, $leaderHeadway=1.2, $fakeSpeed=(2 == 3), $fakeAcc=(2 == 4), $fakePos=(2 == 2)"
attr nCars 8
attr nLanes 1
attr network scenario
attr packetSize 200
attr platoonSize 8
attr ploegH 0.5
attr priority 2
attr processid 74561
attr repetition 0
attr replication #0
attr resultdir results
attr runnumber 35
attr sController "\"CONSENSUS\""
attr seedset 0
param **.coreDebug false
param **.debug false
param **.headway 0.1s
param **.numberOfCars 8
param **.numberOfCarsPerPlatoon 8
param **.numberOfLanes 1
param **.numericController 3
param **.traffic.nCars 8
param **.traffic.nLanes 1
param **.traffic.platoonInsertDistance 15m
param **.traffic.platoonInsertHeadway 0.8s
param **.traffic.platoonInsertSpeed 100kmph
param **.traffic.platoonInsertTime "1 s"
param **.traffic.platoonLeaderHeadway 1.2s
param **.traffic.platoonSize 8
param **.traffic.platooningVType "\"vtypeauto\""
param **.traffic_type "\"PlatoonsTrafficManager\""
param *.**.nic.mac1609_4.bitrate 6Mbps
param *.**.nic.mac1609_4.txPower 100mW
param *.**.nic.mac1609_4.useServiceChannel false
param *.**.nic.phy80211p.analogueModels "xmldoc(\"config.xml\")"
param *.**.nic.phy80211p.decider "xmldoc(\"config.xml\")"
param *.**.nic.phy80211p.maxTXPower 100mW
param *.**.nic.phy80211p.sensitivity -94dBm
param *.**.nic.phy80211p.thermalNoise -95dBm
param *.**.nic.phy80211p.usePropagationDelay true
param *.**.nic.phy80211p.useThermalNoise true
param *.annotations.draw false
param *.connectionManager.alpha 2.0
param *.connectionManager.carrierFrequency "5.890e9 Hz"
param *.connectionManager.pMax 100mW
param *.connectionManager.sat -94dBm
param *.connectionManager.sendDirect true
param *.manager.autoShutdown true
param *.manager.commandLine "\"sumo --remote-port $port --seed $seed --configuration-file $configFile\""
param *.manager.configFile "\"./sumocfg/freeway.sumo.cfg\""
param *.manager.host "\"localhost\""
param *.manager.margin 25
param *.manager.moduleDisplayString "\"\""
param *.manager.moduleName "\"node\""
param *.manager.moduleType "\"Car\""
param *.manager.updateInterval 0.01s
param *.node[*].appl.attackStart 30s
param *.node[*].appl.attackerType 2
param *.node[*].appl.simulationDuration "60 s"
param *.node[*].appl_type "\"SimplePlatooningApp\""
param *.node[*].helper.nCars 8
param *.node[*].helper.nLanes 1
param *.node[*].helper.platoonSize 8
param *.node[*].helper_type "\"PositionHelper\""
param *.node[*].mobility.x 0
param *.node[*].mobility.y 0
param *.node[*].mobility.z 1.895
param *.node[*].prot.attackStart 30s
param *.node[*].prot.attackerType 2
param *.node[*].prot.attackingNode 3
param *.node[*].prot.beaconingInterval 0.1s
param *.node[*].prot.fakeAcc "(2 == 4)"
param *.node[*].prot.fakePos "(2 == 2)"
param *.node[*].prot.fakeSpeed "(2 == 3)"
param *.node[*].prot.maliciousAcc "-30 mpss"
param *.node[*].prot.maliciousSpeed 150kmph
param *.node[*].prot.packetSize 200
param *.node[*].prot.priority 2
param *.node[*].prot.shiftX "3 m"
param *.node[*].prot.useControllerAcceleration true
param *.node[*].protocol_type "\"SimplePlatooningBeaconing\""
param *.node[*].scenario.accHeadway 0.1s
param *.node[*].scenario.caccC1 0.5
param *.node[*].scenario.caccOmegaN "0.2 Hz"
param *.node[*].scenario.caccSpacing 20m
param *.node[*].scenario.caccXi 1
param *.node[*].scenario.controller "\"CONSENSUS\""
param *.node[*].scenario.engineTau "0.5 s"
param *.node[*].scenario.leaderHeadway 1.2s
param *.node[*].scenario.leaderSpeed 100kmph
param *.node[*].scenario.ploegH 0.5s
param *.node[*].scenario.ploegKd 0.7
param *.node[*].scenario.ploegKp 0.2
param *.node[*].scenario.useRealisticEngine false
param *.node[*].scenario_type "\"SinusoidalScenario\""
param *.node[*].unicast.packetLossRate 0
param *.obstacles.debug false
param *.playgroundSizeX 65000m
param *.playgroundSizeY 25000m
param *.playgroundSizeZ 50m
param *.world.use2D false
param *.world.useTorus false

vector 0  scenario.node[0].appl  distance  ETV
vector 1  scenario.node[0].appl  relativeSpeed  ETV
vector 2  scenario.node[0].appl  nodeId  ETV
vector 6  scenario.node[0].appl  acceleration  ETV
vector 7  scenario.node[0].appl  controllerAcceleration  ETV
vector 3  scenario.node[0].appl  speed  ETV
vector 4  scenario.node[0].appl  posx  ETV
vector 5  scenario.node[0].appl  posy  ETV
vector 22  scenario.node[1].appl  distance  ETV
vector 23  scenario.node[1].appl  relativeSpeed  ETV
vector 24  scenario.node[1].appl  nodeId  ETV
vector 28  scenario.node[1].appl  acceleration  ETV
vector 29  scenario.node[1].appl  controllerAcceleration  ETV
vector 25  scenario.node[1].appl  speed  ETV
vector 26  scenario.node[1].appl  posx  ETV
vector 27  scenario.node[1].appl  posy  ETV
vector 44  scenario.node[2].appl  distance  ETV
vector 45  scenario.node[2].appl  relativeSpeed  ETV
vector 46  scenario.node[2].appl  nodeId  ETV
vector 50  scenario.node[2].appl  acceleration  ETV
vector 51  scenario.node[2].appl  controllerAcceleration  ETV
vector 47  scenario.node[2].appl  speed  ETV
vector 48  scenario.node[2].appl  posx  ETV
vector 49  scenario.node[2].appl  posy  ETV
vector 66  scenario.node[3].appl  distance  ETV
vector 67  scenario.node[3].appl  relativeSpeed  ETV
vector 68  scenario.node[3].appl  nodeId  ETV
vector 72  scenario.node[3].appl  acceleration  ETV
vector 73  scenario.node[3].appl  controllerAcceleration  ETV
vector 69  scenario.node[3].appl  speed  ETV
vector 70  scenario.node[3].appl  posx  ETV
vector 71  scenario.node[3].appl  posy  ETV
vector 88  scenario.node[4].appl  distance  ETV
vector 89  scenario.node[4].appl  relativeSpeed  ETV
vector 90  scenario.node[4].appl  nodeId  ETV
vector 94  scenario.node[4].appl  acceleration  ETV
vector 95  scenario.node[4].appl  controllerAcceleration  ETV
vector 91  scenario.node[4].appl  speed  ETV
vector 92  scenario.node[4].appl  posx  ETV
vector 93  scenario.node[4].appl  posy  ETV
vector 110  scenario.node[5].appl  distance  ETV
vector 111  scenario.node[5].appl  relativeSpeed  ETV
vector 112  scenario.node[5].appl  nodeId  ETV
vector 116  scenario.node[5].appl  acceleration  ETV
vector 117  scenario.node[5].appl  controllerAcceleration  ETV
vector 113  scenario.node[5].appl  speed  ETV
vector 114  scenario.node[5].appl  posx  ETV
vector 115  scenario.node[5].appl  posy  ETV
vector 132  scenario.node[6].appl  distance  ETV
vector 133  scenario.node[6].appl  relativeSpeed  ETV
vector 134  scenario.node[6].appl  nodeId  ETV
vector 138  scenario.node[6].appl  acceleration  ETV
vector 139  scenario.node[6].appl  controllerAcceleration  ETV
vector 135  scenario.node[6].appl  speed  ETV
vector 136  scenario.node[6].appl  posx  ETV
vector 137  scenario.node[6].appl  posy  ETV
vector 154  scenario.node[7].appl  distance  ETV
vector 155  scenario.node[7].appl  relativeSpeed  ETV
vector 156  scenario.node[7].appl  nodeId  ETV
vector 160  scenario.node[7].appl  acceleration  ETV
vector 161  scenario.node[7].appl  controllerAcceleration  ETV
vector 157  scenario.node[7].appl  speed  ETV
vector 158  scenario.node[7].appl  posx  ETV
vector 159  scenario.node[7].appl  posy  ETV
vector 80  scenario.node[3].prot  frontDelay  ETV
vector 78  scenario.node[3].prot  frontDelayId  ETV
vector 58  scenario.node[2].prot  frontDelay  ETV
vector 56  scenario.node[2].prot  frontDelayId  ETV
vector 168  scenario.node[7].prot  frontDelay  ETV
vector 166  scenario.node[7].prot  frontDelayId  ETV
vector 35  scenario.node[1].prot  leaderDelay  ETV
vector 33  scenario.node[1].prot  leaderDelayId  ETV
vector 36  scenario.node[1].prot  frontDelay  ETV
vector 34  scenario.node[1].prot  frontDelayId  ETV
vector 57  scenario.node[2].prot  leaderDelay  ETV
vector 55  scenario.node[2].prot  leaderDelayId  ETV
vector 79  scenario.node[3].prot  leaderDelay  ETV
vector 77  scenario.node[3].prot  leaderDelayId  ETV
vector 101  scenario.node[4].prot  leaderDelay  ETV
vector 99  scenario.node[4].prot  leaderDelayId  ETV
vector 123  scenario.node[5].prot  leaderDelay  ETV
vector 121  scenario.node[5].prot  leaderDelayId  ETV
vector 145  scenario.node[6].prot  leaderDelay  ETV
vector 143  scenario.node[6].prot  leaderDelayId  ETV
vector 167  scenario.node[7].prot  leaderDelay  ETV
vector 165  scenario.node[7].prot  leaderDelayId  ETV
vector 124  scenario.node[5].prot  frontDelay  ETV
vector 122  scenario.node[5].prot  frontDelayId  ETV
vector 102  scenario.node[4].prot  frontDelay  ETV
vector 100  scenario.node[4].prot  frontDelayId  ETV
vector 146  scenario.node[6].prot  frontDelay  ETV
vector 144  scenario.node[6].prot  frontDelayId  ETV
vector 8  scenario.node[0].prot  nodeId  ETV
vector 9  scenario.node[0].prot  busyTime  ETV
vector 10  scenario.node[0].prot  collisions  ETV
vector 30  scenario.node[1].prot  nodeId  ETV
vector 31  scenario.node[1].prot  busyTime  ETV
vector 32  scenario.node[1].prot  collisions  ETV
vector 52  scenario.node[2].prot  nodeId  ETV
vector 53  scenario.node[2].prot  busyTime  ETV
vector 54  scenario.node[2].prot  collisions  ETV
vector 74  scenario.node[3].prot  nodeId  ETV
vector 75  scenario.node[3].prot  busyTime  ETV
vector 76  scenario.node[3].prot  collisions  ETV
vector 96  scenario.node[4].prot  nodeId  ETV
vector 97  scenario.node[4].prot  busyTime  ETV
vector 98  scenario.node[4].prot  collisions  ETV
vector 118  scenario.node[5].prot  nodeId  ETV
vector 119  scenario.node[5].prot  busyTime  ETV
vector 120  scenario.node[5].prot  collisions  ETV
vector 140  scenario.node[6].prot  nodeId  ETV
vector 141  scenario.node[6].prot  busyTime  ETV
vector 142  scenario.node[6].prot  collisions  ETV
vector 162  scenario.node[7].prot  nodeId  ETV
vector 163  scenario.node[7].prot  busyTime  ETV
vector 164  scenario.node[7].prot  collisions  ETV
7	232	1.11	-8.430731206488e-07
7	788	1.21	-8.247038785214e-07
7	1344	1.31	-7.948429328053e-07
7	1900	1.41	-7.5609037608615e-07
7	2456	1.51	-7.1073863239235e-07
7	3012	1.61	-6.6078666094427e-07
7	3568	1.71	-6.079568990458e-07
7	4124	1.81	-5.5371389606762e-07
7	4680	1.91	-4.9928438983216e-07
7	5244	2.01	-4.4567811841034e-07
7	5800	2.11	-3.9370868165634e-07
7	6356	2.21	-3.4401411852514e-07
7	6912	2.31	-2.9707706872273e-07
7	7468	2.41	-2.5324398578164e-07
7	8024	2.51	-2.1274344064182e-07
7	8580	2.61	-1.7570315336002e-07
7	9136	2.71	-1.4216582755466e-07
7	9692	2.81	-1.1210364547765e-07
7	10248	2.91	-8.5431519636359e-08
7	10812	3.01	-6.2018816748832e-08
7	11368	3.11	-4.1699859565369e-08
7	11924	3.21	-2.4283316690799e-08
7	12480	3.31	-9.5601571103998e-09
7	13036	3.41	2.6894362292751e-09
7	13592	3.51	1.2690140493987e-08
7	14148	3.61	2.0666576006079e-08
7	14704	3.71	2.6839355626862e-08
7	15260	3.81	3.1421798496467e-08
7	15816	3.91	3.4617407607129e-08
7	16380	4.01	3.6617997523081e-08
7	16936	4.11	3.7602347902066e-08
7	17492	4.21	3.7735404134764e-08
7	18048	4.31	3.7167730226884e-08
7	18604	4.41	3.6035434192172e-08
7	19160	4.51	3.446024621212e-08
7	19716	4.61	3.2549973383311e-08
7	20272	4.71	3.0399071704323e-08
7	20828	4.81	2.8089345960325e-08
7	21384	4.91	2.5690727767369e-08
7	21949	5.01	2.326218861981e-08
7	22506	5.11	0.34814789186464
7	23063	5.21	0.68726937161622
7	23620	5.31	1.0064706311115
7	24177	5.41	1.2963311698934
7	24734	5.51	1.5
7	25291	5.61	1.5
7	25848	5.71	1.5
7	26405	5.81	1.5
7	26962	5.91	1.5
7	27527	6.01	1.5
7	28084	6.11	1.5
7	28641	6.21	1.5
7	29198	6.31	1.5
7	29755	6.41	1.5
7	30312	6.51	1.4919234148491
7	30869	6.61	1.226499329248
7	31426	6.71	0.92305384082895
7	31983	6.81	0.58908102066068
7	32540	6.91	0.2323562172788
7	33105	7.01	-0.13919559696193
7	33662	7.11	-0.51762846464532
7	34219	7.21	-0.89509993840359
7	34776	7.31	-1.2639902875456
7	35333	7.41	-1.5
7	35890	7.51	-1.5
7	36447	7.61	-1.5
7	37004	7.71	-1.5
7	37561	7.81	-1.5
7	38118	7.91	-1.5
7	38683	8.01	-1.5
7	39240	8.11	-1.5
7	39797	8.21	-1.5
7	40354	8.31	-1.5
7	40911	8.41	-1.5
7	41468	8.51	-1.5
7	42025	8.61	-1.5
7	42582	8.71	-1.5
7	43139	8.81	-1.5
7	43696	8.91	-1.5
7	44261	9.01	-1.5
7	44818	9.11	-1.5
7	45375	9.21	-1.5
7	45932	9.31	-1.5
7	46489	9.41	-1.5
7	47046	9.51	-1.1784535904302
7	47603	9.61	-0.73985166419522
7	48160	9.71	-0.29046662059022
7	48717	9.81	0.15868205669937
7	49274	9.91	0.59737147691163
7	49839	10.01	1.0162504341895
7	50396	10.11	1.4069035498921
7	50953	10.21	1.5
7	51510	10.31	1.5
7	52067	10.41	1.5
7	52624	10.51	1.5
7	53181	10.61	1.5
7	53738	10.71	1.5
7	54295	10.81	1.5
7	54852	10.91	1.5
7	55417	11.01	1.5
7	55974	11.11	1.5
7	56531	11.21	1.5
7	57088	11.31	1.5
7	57645	11.41	1.5
7	58202	11.51	1.5
7	58759	11.61	1.5
7	59316	11.71	1.5
7	59873	11.81	1.5
7	60430	11.91	1.142056952341
7	60995	12.01	0.73271074174567
7	61552	12.11	0.30763491703603
7	62109	12.21	-0.1229018340005
7	62666	12.31	-0.54917422864573
7	63223	12.41	-0.96209331715876
7	63780	12.51	-1.353290027524
7	64337	12.61	-1.5
7	64894	12.71	-1.5
7	65451	12.81	-1.5
7	66008	12.91	-1.5
7	66573	13.01	-1.5
7	67130	13.11	-1.5
7	67687	13.21	-1.5
7	68244	13.31	-1.5
7	68801	13.41	-1.5
7	69358	13.51	-1.5
7	69915	13.61	-1.5
7	70472	13.71	-1.5
7	71029	13.81	-1.5
7	71586	13.91	-1.5
7	72151	14.01	-1.5
7	72708	14.11	-1.5
7	73265	14.21	-1.5
7	73822	14.31	-1.5
7	74379	14.41	-1.3008305793136
7	74936	14.51	-0.8883573602082
7	75493	14.61	-0.45792464374534
7	76050	14.71	-0.020297800477731
7	76607	14.81	0.41435934757689
7	77164	14.91	0.83657487484984
7	77729	15.01	1.2376491838973
7	78286	15.11	1.5
7	78843	15.21	1.5
7	79400	15.31	1.5
7	79957	15.41	1.5
7	80514	15.51	1.5
7	81071	15.61	1.5
7	81628	15.71	1.5
7	82185	15.81	1.5
7	82742	15.91	1.5
7	83307	16.01	1.5
7	83864	16.11	1.5
7	84421	16.21	1.5
7	84978	16.31	1.5
7	85535	16.41	1.5
7	86092	16.51	1.5
7	86649	16.61	1.5
7	87206	16.71	1.5
7	87763	16.81	1.5
7	88320	16.91	1.2451238477401
7	88885	17.01	0.83347870135556
7	89442	17.11	0.40470958877082
7	89999	17.21	-0.03059806221717
7	90556	17.31	-0.46243980386486
7	91113	17.41	-0.8814833530446
7	91670	17.51	-1.2791500631707
7	92227	17.61	-1.5
7	92784	17.71	-1.5
7	93341	17.81	-1.5
7	93898	17.91	-1.5
7	94463	18.01	-1.5
7	95020	18.11	-1.5
7	95577	18.21	-1.5
7	96134	18.31	-1.5
7	96691	18.41	-1.5
7	97248	18.51	-1.5
7	97805	18.61	-1.5
7	98362	18.71	-1.5
7	98919	18.81	-1.5
7	99476	18.91	-1.5
7	100041	19.01	-1.5
7	100598	19.11	-1.5
7	101155	19.21	-1.5
7	101712	19.31	-1.5
7	102269	19.41	-1.2657245815118
7	102826	19.51	-0.85377693481412
7	103383	19.61	-0.42439560037995
7	103940	19.71	0.011767371269134
7	104497	19.81	0.44464851836491
7	105054	19.91	0.86486384400621
7	105619	20.01	1.2637899041136
7	106176	20.11	1.5
7	106733	20.21	1.5
7	107290	20.31	1.5
7	107847	20.41	1.5
7	108404	20.51	1.5
7	108961	20.61	1.5
7	109518	20.71	1.5
7	110075	20.81	1.5
7	110632	20.91	1.5
7	111197	21.01	1.5
7	111754	21.11	1.5
7	112311	21.21	1.5
7	112868	21.31	1.5
7	113425	21.41	1.5
7	113982	21.51	1.5
7	114539	21.61	1.5
7	115096	21.71	1.5
7	115653	21.81	1.5
7	116210	21.91	1.258091551777
7	116775	22.01	0.8462549163489
7	117332	22.11	0.41709956367568
7	117889	22.21	-0.018747163542116
7	118446	22.31	-0.45124369149361
7	119003	22.41	-0.87102520538537
7	119560	22.51	-1.2694848794591
7	120117	22.61	-1.5
7	120674	22.71	-1.5
7	121231	22.81	-1.5
7	121788	22.91	-1.5
7	122353	23.01	-1.5
7	122910	23.11	-1.5
7	123467	23.21	-1.5
7	124024	23.31	-1.5
7	124581	23.41	-1.5
7	125138	23.51	-1.5
7	125695	23.61	-1.5
7	126252	23.71	-1.5
7	126809	23.81	-1.5
7	127366	23.91	-1.5
7	127931	24.01	-1.5
7	128488	24.11	-1.5
7	129045	24.21	-1.5
7	129602	24.31	-1.5
7	130159	24.41	-1.2609239651112
7	130716	24.51	-0.8490461568448
7	131273	24.61	-0.41980696481052
7	131830	24.71	0.016157099446737
7	132387	24.81	0.44879633966076
7	132944	24.91	0.86873882266934
7	133509	25.01	1.26737155572
7	134066	25.11	1.5
7	134623	25.21	1.5
7	135180	25.31	1.5
7	135737	25.41	1.5
7	136294	25.51	1.5
7	136851	25.61	1.5
7	137408	25.71	1.5
7	137965	25.81	1.5
7	138522	25.91	1.5
7	139087	26.01	1.5
7	139644	26.11	1.5
7	140201	26.21	1.5
7	140758	26.31	1.5
7	141315	26.41	1.5
7	141872	26.51	1.5
7	142429	26.61	1.5
7	142986	26.71	1.5
7	143543	26.81	1.5
7	144100	26.91	1.2598728518634
7	144665	27.01	0.84801032251441
7	145222	27.11	0.41880224309152
7	145779	27.21	-0.017118277441824
7	146336	27.31	-0.44970455708397
7	146893	27.41	-0.86958730431876
7	147450	27.51	-1.2681558149826
7	148007	27.61	-1.5
7	148564	27.71	-1.5
7	149121	27.81	-1.5
7	149678	27.91	-1.5
7	150243	28.01	-1.5
7	150800	28.11	-1.5
7	151357	28.21	-1.5
7	151914	28.31	-1.5
7	152471	28.41	-1.5
7	153028	28.51	-1.5
7	153585	28.61	-1.5
7	154142	28.71	-1.5
7	154699	28.81	-1.5
7	155256	28.91	-1.5
7	155821	29.01	-1.5
7	156378	29.11	-1.5
7	156935	29.21	-1.5
7	157492	29.31	-1.5
7	158049	29.41	-1.2602629232513
7	158606	29.51	-0.84839472385599
7	159163	29.61	-0.41917509845245
7	159720	29.71	0.016761581287305
7	160277	29.81	0.44936751475852
7	160834	29.91	0.86927243012183
7	161399	30.01	1.267864773911
7	161956	30.11	1.5
7	162513	30.21	1.5
7	163070	30.31	1.5
7	163627	30.41	1.5
7	164184	30.51	1.5
7	164741	30.61	1.5
7	165298	30.71	1.5
7	165855	30.81	1.5
7	166412	30.91	1.5
7	166977	31.01	1.5
7	167534	31.11	1.5
7	168091	31.21	1.5
7	168648	31.31	1.5
7	169205	31.41	1.5
7	169762	31.51	1.5
7	170319	31.61	1.5
7	170876	31.71	1.5
7	171433	31.81	1.5
7	171990	31.91	1.2601181665204
7	172555	32.01	0.8482520712972
7	173112	32.11	0.41903673064365
7	173669	32.21	-0.016893952363397
7	174226	32.31	-0.44949259223633
7	174783	32.41	-0.8693892809368
7	175340	32.51	-1.2679727801776
7	175897	32.61	-1.5
7	176454	32.71	-1.5
7	177011	32.81	-1.5
7	177568	32.91	-1.5
7	178133	33.01	-1.5
7	178690	33.11	-1.5
7	179247	33.21	-1.5
7	179804	33.31	-1.5
7	180361	33.41	-1.5
7	180918	33.51	-1.5
7	181475	33.61	-1.5
7	182032	33.71	-1.5
7	182589	33.81	-1.5
7	183146	33.91	-1.5
7	183711	34.01	-1.5
7	184268	34.11	-1.5
7	184825	34.21	-1.5
7	185382	34.31	-1.5
7	185939	34.41	-1.2601718862041
7	186496	34.51	-0.84830501011592
7	187053	34.61	-0.41908807937801
7	187610	34.71	0.016844829035612
7	188167	34.81	0.44944617558609
7	188724	34.91	0.86934591722741
7	189289	35.01	1.2679326987083
7	189846	35.11	1.5
7	190403	35.21	1.5
7	190960	35.31	1.5
7	191517	35.41	1.5
7	192074	35.51	1.5
7	192631	35.61	1.5
7	193188	35.71	1.5
7	193745	35.81	1.5
7	194302	35.91	1.5
7	194867	36.01	1.5
7	195424	36.11	1.5
7	195981	36.21	1.5
7	196538	36.31	1.5
7	197095	36.41	1.5
7	197652	36.51	1.5
7	198209	36.61	1.5
7	198766	36.71	1.5
7	199323	36.81	1.5
7	199880	36.91	1.2601519506571
7	200445	37.01	0.84828536435039
7	201002	37.11	0.41906902369788
7	201559	37.21	-0.016863058860221
7	202116	37.31	-0.44946340095391
7	202673	37.41	-0.86936200963904
7	203230	37.51	-1.2679475730701
7	203787	37.61	-1.5
7	204344	37.71	-1.5
7	204901	37.81	-1.5
7	205458	37.91	-1.5
7	206023	38.01	-1.5
7	206580	38.11	-1.5
7	207137	38.21	-1.5
7	207694	38.31	-1.5
7	208251	38.41	-1.5
7	208808	38.51	-1.5
7	209365	38.61	-1.5
7	209922	38.71	-1.5
7	210479	38.81	-1.5
7	211036	38.91	-1.5
7	211601	39.01	-1.5
7	212158	39.11	-1.5
7	212715	39.21	-1.5
7	213272	39.31	-1.5
7	213829	39.41	-1.2601593488036
7	214386	39.51	-0.84829265495814
7	214943	39.61	-0.41907609532306
7	215500	39.71	0.01685629371266
7	216057	39.81	0.44945700856354
7	216614	39.91	0.86935603769241
7	217179	40.01	1.2679420531458
7	217736	40.11	1.5
7	218293	40.21	1.5
7	218850	40.31	1.5
7	219407	40.41	1.5
7	219964	40.51	1.5
7	220521	40.61	1.5
7	221078	40.71	1.5
7	221635	40.81	1.5
7	222192	40.91	1.5
7	222757	41.01	1.5
7	223314	41.11	1.5
7	223871	41.21	1.5
7	224428	41.31	1.5
7	224985	41.41	1.5
7	225542	41.51	1.5
7	226099	41.61	1.5
7	226656	41.71	1.5
7	227213	41.81	1.5
7	227770	41.91	1.2601566033284
7	228335	42.01	0.84828994939093
7	228892	42.11	0.41907347102099
7	229449	42.21	-0.016858804279881
7	230006	42.31	-0.44945938079935
7	230563	42.41	-0.86935825390018
7	231120	42.51	-1.2679441016066
7	231677	42.61	-1.5
7	232234	42.71	-1.5
7	232791	42.81	-1.5
7	233348	42.91	-1.5
7	233913	43.01	-1.5
7	234470	43.11	-1.5
7	235027	43.21	-1.5
7	235584	43.31	-1.5
7	236141	43.41	-1.5
7	236698	43.51	-1.5
7	237255	43.61	-1.5
7	237812	43.71	-1.5
7	238369	43.81	-1.5
7	238926	43.91	-1.5
7	239491	44.01	-1.5
7	240048	44.11	-1.5
7	240605	44.21	-1.5
7	241162	44.31	-1.5
7	241719	44.41	-1.2601576221815
7	242276	44.51	-0.84829095343405
7	242833	44.61	-0.41907444490634
7	243390	44.71	0.016857872601886
7	243947	44.81	0.44945850045656
7	244504	44.91	0.86935743145978
7	245069	45.01	1.2679433414175
7	245626	45.11	1.5
7	246183	45.21	1.5
7	246740	45.31	1.5
7	247297	45.41	1.5
7	247854	45.51	1.5
7	248411	45.61	1.5
7	248968	45.71	1.5
7	249525	45.81	1.5
7	250082	45.91	1.5
7	250647	46.01	1.5
7	251204	46.11	1.5
7	251761	46.21	1.5
7	252318	46.31	1.5
7	252875	46.41	1.5
7	253432	46.51	1.5
7	253989	46.61	1.5
7	254546	46.71	1.5
7	255103	46.81	1.5
7	255660	46.91	1.2601572440828
7	256225	47.01	0.84829058083134
7	256782	47.11	0.41907408349529
7	257339	47.21	-0.016858218349689
7	257896	47.31	-0.44945882715379
7	258453	47.41	-0.86935773666939
6	232	1.11	-1.2391545567425e-07
6	788	1.21	-2.514333630188e-07
6	1344	1.31	-3.5153284727585e-07
6	1900	1.41	-4.2734420446777e-07
6	2456	1.51	-4.8187125401e-07
6	3012	1.61	-5.1795971955926e-07
6	3568	1.71	-5.3827413637464e-07
6	4124	1.81	-5.4528506154838e-07
6	4680	1.91	-5.4125663950799e-07
6	5244	2.01	-5.2824375984528e-07
6	5800	2.11	-5.080941889446e-07
6	6356	2.21	-4.8245141215375e-07
6	6912	2.31	-4.5276244975412e-07
6	7468	2.41	-4.202860282021e-07
6	8024	2.51	-3.8610643571246e-07
6	8580	2.61	-3.5114133822844e-07
6	9136	2.71	-3.1616025353287e-07
6	9692	2.81	-2.8179307776099e-07
6	10248	2.91	-2.4854536206931e-07
6	10812	3.01	-2.1681287876163e-07
6	11368	3.11	-1.8689298997288e-07
6	11924	3.21	-1.5899530581009e-07
6	12480	3.31	-1.3325838210676e-07
6	13036	3.41	-1.0975469422192e-07
6	13592	3.51	-8.8505203166278e-08
6	14148	3.61	-6.948575048682e-08
6	14704	3.71	-5.263665059374e-08
6	15260	3.81	-3.7870506730542e-08
6	15816	3.91	-2.5077895315917e-08
6	16380	4.01	-1.4133405557004e-08
6	16936	4.11	-4.9016790626411e-09
6	17492	4.21	2.7593927143243e-09
6	18048	4.31	8.9940499492513e-09
6	18604	4.41	1.3947598631603e-08
6	19160	4.51	1.7761081494427e-08
6	19716	4.61	2.0570567471623e-08
6	20272	4.71	2.2507151697937e-08
6	20828	4.81	2.3691626438449e-08
6	21384	4.91	2.4239099616352e-08
6	21949	5.01	2.4253310471067e-08
6	22506	5.11	0.0068264526728257
6	23063	5.21	0.074594836732089
6	23620	5.31	0.19005134681258
6	24177	5.41	0.34050272642077
6	24734	5.51	0.51301638947834
6	25291	5.61	0.6902545856434
6	25848	5.71	0.83572672600098
6	26405	5.81	0.95506454902292
6	26962	5.91	1.0529631292492
6	27527	6.01	1.133274063098
6	28084	6.11	1.1991570011418
6	28641	6.21	1.2532039573571
6	29198	6.31	1.2975412860019
6	29755	6.41	1.333913338177
6	30312	6.51	1.3635927249268
6	30869	6.61	1.3702053615898
6	31426	6.71	1.3272611926745
6	31983	6.81	1.2373810921854
6	32540	6.91	1.1040433755532
6	33105	7.01	0.93147092012096
6	33662	7.11	0.72451590565734
6	34219	7.21	0.48854318346834
6	34776	7.31	0.2293132962599
6	35333	7.41	-0.044839398398011
6	35890	7.51	-0.30626147443016
6	36447	7.61	-0.52071863005345
6	37004	7.71	-0.69664819306503
6	37561	7.81	-0.84097171097959
6	38118	7.91	-0.95936726353223
6	38683	8.01	-1.0564928537818
6	39240	8.11	-1.1361696666178
6	39797	8.21	-1.2015324045674
6	40354	8.31	-1.2551526155189
6	40911	8.41	-1.2991398644115
6	41468	8.51	-1.3352247292573
6	42025	8.61	-1.3648268867847
6	42582	8.71	-1.3891109663845
6	43139	8.81	-1.4090323697992
6	43696	8.91	-1.4253748592211
6	44261	9.01	-1.4387813926344
6	44818	9.11	-1.4497794195275
6	45375	9.21	-1.4588016321909
6	45932	9.31	-1.4662029890104
6	46489	9.41	-1.4722746794938
6	47046	9.51	-1.4696249146823
6	47603	9.61	-1.3967850639141
6	48160	9.71	-1.2587757641274
6	48717	9.81	-1.0660952217858
6	49274	9.91	-0.82923335017639
6	49839	10.01	-0.55852907832801
6	50396	10.11	-0.26404116068406
6	50953	10.21	0.03943269874469
6	51510	10.31	0.30182609756224
6	52067	10.41	0.51708007617997
6	52624	10.51	0.69366331158065
6	53181	10.61	0.83852306852847
6	53738	10.71	0.95735852386056
6	54295	10.81	1.0548449876072
6	54852	10.91	1.1348178424026
6	55417	11.01	1.2004234378704
6	55974	11.11	1.2542428765748
6	56531	11.21	1.2983935616166
6	57088	11.31	1.3346125010283
6	57645	11.41	1.3643246463978
6	58202	11.51	1.3886989543376
6	58759	11.61	1.4086943764163
6	59316	11.71	1.4250975869238
6	59873	11.81	1.4385539327762
6	60430	11.91	1.4345627372837
6	60995	12.01	1.3623449188774
6	61552	12.11	1.2299875654499
6	62109	12.21	1.0461448397812
6	62666	12.31	0.81967864249357
6	63223	12.41	0.55952045905059
6	63780	12.51	0.27454262949682
6	64337	12.61	-0.02234164487227
6	64894	12.71	-0.28780548057448
6	65451	12.81	-0.50557828687161
6	66008	12.91	-0.68422783827593
6	66573	13.01	-0.83078269404453
6	67130	13.11	-0.95100872081275
6	67687	13.21	-1.0496359374716
6	68244	13.31	-1.1305446069798
6	68801	13.41	-1.1969178964556
6	69358	13.51	-1.2513671116345
6	69915	13.61	-1.2960344327361
6	70472	13.71	-1.3326771936619
6	71029	13.81	-1.3627370202897
6	71586	13.91	-1.3873965479586
6	72151	14.01	-1.4076259495578
6	72708	14.11	-1.4242211047666
6	73265	14.21	-1.4378349121291
6	73822	14.31	-1.4490029758537
6	74379	14.41	-1.4542593951845
6	74936	14.51	-1.4067454390027
6	75493	14.61	-1.2938574955285
6	76050	14.71	-1.1248409052222
6	76607	14.81	-0.90912582142266
6	77164	14.91	-0.65618298375618
6	77729	15.01	-0.37539052553193
6	78286	15.11	-0.078063005083351
6	78843	15.21	0.20543869668366
6	79400	15.31	0.43800883574043
6	79957	15.41	0.62879735391697
6	80514	15.51	0.78531039043881
6	81071	15.61	0.91370559385808
6	81628	15.71	1.0190343806951
6	82185	15.81	1.1054406719047
6	82742	15.91	1.1763239259967
6	83307	16.01	1.2344728829817
6	83864	16.11	1.2821752809831
6	84421	16.21	1.3213078620836
6	84978	16.31	1.3534102084598
6	85535	16.41	1.3797453137308
6	86092	16.51	1.4013492725667
6	86649	16.61	1.4190720434691
6	87206	16.71	1.4336108884482
6	87763	16.81	1.4455378052084
6	88320	16.91	1.4502949065335
6	88885	17.01	1.3935559567532
6	89442	17.11	1.2733368701447
6	89999	17.21	1.098674244054
6	90556	17.31	0.87879676591527
6	91113	17.41	0.62298329276125
6	91670	17.51	0.34043137853565
6	92227	17.61	0.043031849081743
6	92784	17.71	-0.23417644595263
6	93341	17.81	-0.46158379949546
6	93898	17.91	-0.64813703535336
6	94463	18.01	-0.80117566522588
6	95020	18.11	-0.92672064505699
6	95577	18.21	-1.0297112558188
6	96134	18.31	-1.1141994282603
6	96691	18.41	-1.1835091568827
6	97248	18.51	-1.2403672749226
6	97805	18.61	-1.2870107353905
6	98362	18.71	-1.3252746188858
6	98919	18.81	-1.3566643306586
6	99476	18.91	-1.382414827345
6	100041	19.01	-1.4035392035215
6	100598	19.11	-1.4208685496044
6	101155	19.21	-1.4350846492011
6	101712	19.31	-1.4467468023362
6	102269	19.41	-1.4517201941775
6	102826	19.51	-1.3984004323884
6	103383	19.61	-1.280899381009
6	103940	19.71	-1.1083308503771
6	104497	19.81	-0.88999806036796
6	105054	19.91	-0.63525086466818
6	105619	20.01	-0.35335363991322
6	106176	20.11	-0.055983891306965
6	106733	20.21	0.22355126013309
6	107290	20.31	0.45286744637245
6	107847	20.41	0.64098658988812
6	108404	20.51	0.79530980944469
6	108961	20.61	0.92190860023926
6	109518	20.71	1.0257637030335
6	110075	20.81	1.1109610600446
6	110632	20.91	1.1808525670222
6	111197	21.01	1.2381879459468
6	111754	21.11	1.2852229265704
6	112311	21.21	1.32380799296
6	112868	21.31	1.3554611865732
6	113425	21.41	1.3814278301393
6	113982	21.51	1.402729522043
6	114539	21.61	1.4202043287796
6	115096	21.71	1.4345397567766
6	115653	21.81	1.4462998007627
6	116210	21.91	1.4512038299461
6	116775	22.01	1.3966149622046
6	117332	22.11	1.2781048258542
6	117889	22.21	1.104758616826
6	118446	22.31	0.88585193073989
6	119003	22.41	0.63070830476128
6	119560	22.51	0.3485673438103
6	120117	22.61	0.051185654371366
6	120674	22.71	-0.22748748564538
6	121231	22.81	-0.45609652227974
6	121788	22.91	-0.64363555681837
6	122353	23.01	-0.79748288496262
6	122910	23.11	-0.92369127904597
6	123467	23.21	-1.0272261205628
6	124024	23.31	-1.1121607517783
6	124581	23.41	-1.1818367320963
6	125138	23.51	-1.238995304092
6	125695	23.61	-1.2858852414524
6	126252	23.71	-1.3243513218473
6	126809	23.81	-1.355906905502
6	127366	23.91	-1.3817934749046
6	127931	24.01	-1.403029478104
6	128488	24.11	-1.4204503972248
6	129045	24.21	-1.434741618608
6	129602	24.31	-1.4464653977726
6	130159	24.41	-1.4513952146881
6	130716	24.51	-1.3972773206763
6	131273	24.61	-1.2791416668563
6	131830	24.71	-1.1060840673021
6	132387	24.81	-0.88739036841652
6	132944	24.91	-0.63239387292597
6	133509	25.01	-0.35034337810913
6	134066	25.11	-0.052966136909305
6	134623	25.21	0.2260268698226
6	135180	25.31	0.45489830857264
6	135737	25.41	0.64265260424108
6	136294	25.51	0.79667652148672
6	136851	25.61	0.92302978013947
6	137408	25.71	1.026683461059
6	137965	25.81	1.1117155819772
6	138522	25.91	1.1814715378073
6	139087	26.01	1.2386957175785
6	139644	26.11	1.2856394761656
6	140201	26.21	1.3241497087126
6	140758	26.31	1.3557415125099
6	141315	26.41	1.381657795045
6	141872	26.51	1.4029181733619
6	142429	26.61	1.4203590885685
6	142986	26.71	1.4346667137069
6	143543	26.81	1.4464039496644
6	144100	26.91	1.4513241957726
6	144665	27.01	1.3970315218256
6	145222	27.11	1.2787568961965
6	145779	27.21	1.1055921925461
6	146336	27.31	0.88681945319387
6	146893	27.41	0.63176835684509
6	147450	27.51	0.34968428947479
6	148007	27.61	0.052305397195695
6	148564	27.71	-0.22656890652364
6	149121	27.81	-0.45534296745835
6	149678	27.91	-0.64301737940227
6	150243	28.01	-0.79697576417033
6	150800	28.11	-0.92327526336611
6	151357	28.21	-1.0268848428069
6	151914	28.31	-1.1118807851517
6	152471	28.41	-1.1816070619506
6	153028	28.51	-1.2388068945789
6	153585	28.61	-1.2857306800289
6	154142	28.71	-1.3242245276459
6	154699	28.81	-1.3558028900945
6	155256	28.91	-1.3817081460427
6	155821	29.01	-1.4029594787171
6	156378	29.11	-1.4203929733469
6	156935	29.21	-1.4346945110272
6	157492	29.31	-1.4464267531491
6	158049	29.41	-1.4513505510322
6	158606	29.51	-1.3971227384758
6	159163	29.61	-1.2788996857299
6	159720	29.71	-1.1057747287548
6	160277	29.81	-0.88703132157519
6	160834	29.91	-0.63200048778356
6	161399	30.01	-0.34992887929945
6	161956	30.11	-0.052550599747647
6	162513	30.21	0.2263677550264
6	163070	30.31	0.45517795317025
6	163627	30.41	0.64288201021157
6	164184	30.51	0.7968647142846
6	164741	30.61	0.92318416378134
6	165298	30.71	1.0268101094169
6	165855	30.81	1.1118194777417
6	166412	30.91	1.1815567685211
6	166977	31.01	1.2387656364492
6	167534	31.11	1.2856968339921
6	168091	31.21	1.3241967621074
6	168648	31.31	1.3557801126822
6	169205	31.41	1.3816894606308
6	169762	31.51	1.4029441501705
6	170319	31.61	1.4203803985996
6	170876	31.71	1.4346841953547
6	171433	31.81	1.4464182907037
6	171990	31.91	1.451340770512
6	172555	32.01	1.397088887688
6	173112	32.11	1.2788466960817
6	173669	32.21	1.105706988989
6	174226	32.31	0.88695269654693
6	174783	32.41	0.6319143432556
6	175340	32.51	0.34983811123936
6	175897	32.61	0.052459604302157
6	176454	32.71	-0.22644240298604
6	177011	32.81	-0.45523919049693
6	177568	32.91	-0.64293224614822
6	178133	33.01	-0.7969059252499
6	178690	33.11	-0.92321797112582
6	179247	33.21	-1.0268378432144
6	179804	33.31	-1.1118422291158
6	180361	33.41	-1.181575432572
6	180918	33.51	-1.2387809474717
6	181475	33.61	-1.2857093943634
6	182032	33.71	-1.3242070659867
6	182589	33.81	-1.3557885654517
6	183146	33.91	-1.3816963948457
6	183711	34.01	-1.4029498386424
6	184268	34.11	-1.4203850651278
6	184825	34.21	-1.434688023533
6	185382	34.31	-1.4464214311442
6	185939	34.41	-1.4513444000944
6	186496	34.51	-1.3971014498232
6	187053	34.61	-1.2788663607086
6	187610	34.71	-1.1057321274318
6	188167	34.81	-0.88698187454561
6	188724	34.91	-0.63194631176522
6	189289	35.01	-0.34987179555621
6	189846	35.11	-0.052493373001994
6	190403	35.21	0.22641470089013
6	190960	35.31	0.45521646512974
6	191517	35.41	0.64291360343276
6	192074	35.51	0.79689063173021
6	192631	35.61	0.9232054251143
6	193188	35.71	1.0268275511155
6	193745	35.81	1.1118337860104
6	194302	35.91	1.1815685062846
6	194867	36.01	1.2387752655037
6	195424	36.11	1.2857047331707
6	195981	36.21	1.324203242185
6	196538	36.31	1.3557854286034
6	197095	36.41	1.3816938215378
6	197652	36.51	1.4029477276342
6	198209	36.61	1.4203833333653
6	198766	36.71	1.4346866028841
6	199323	36.81	1.4464202657173
6	199880	36.91	1.4513430531448
6	200445	37.01	1.3970967879747
6	201002	37.11	1.2788590631025
6	201559	37.21	1.1057227984747
6	202116	37.31	0.8869710464964
6	202673	37.41	0.63193444814829
6	203230	37.51	0.34985929519813
6	203787	37.61	0.052480841329228
6	204344	37.71	-0.22642498122742
6	204901	37.81	-0.45522489858705
6	205458	37.91	-0.64292052180406
6	206023	38.01	-0.79689630720416
6	206580	38.11	-0.92321008097898
6	207137	38.21	-1.0268313705456
6	207694	38.31	-1.1118369192733
6	208251	38.41	-1.1815710766513
6	208808	38.51	-1.2387773740993
6	209365	38.61	-1.2857064629529
6	209922	38.71	-1.3242046612092
6	210479	38.81	-1.3557865926966
6	211036	38.91	-1.3816947764997
6	211601	39.01	-1.4029485110349
6	212158	39.11	-1.420383976027
6	212715	39.21	-1.4346871300905
6	213272	39.31	-1.4464206982101
6	213829	39.41	-1.4513435530016
6	214386	39.51	-1.3970985180016
6	214943	39.61	-1.2788617712673
6	215500	39.71	-1.1057262604808
6	216057	39.81	-0.88697506482056
6	216614	39.91	-0.63193885077553
6	217179	40.01	-0.34986393412169
6	217736	40.11	-0.052485491873711
6	218293	40.21	0.22642116616005
6	218850	40.31	0.45522176890245
6	219407	40.41	0.64291795437263
6	219964	40.51	0.79689420101552
6	220521	40.61	0.92320835317068
6	221078	40.71	1.0268299531418
6	221635	40.81	1.1118357565078
6	222192	40.91	1.1815701227786
6	222757	41.01	1.2387765915918
6	223314	41.11	1.2857058210248
6	223871	41.21	1.3242041346043
6	224428	41.31	1.3557861606976
6	224985	41.41	1.3816944221094
6	225542	41.51	1.4029482203117
6	226099	41.61	1.420383737533
6	226656	41.71	1.4346869344426
6	227213	41.81	1.4464205377106
6	227770	41.91	1.4513433675031
6	228335	42.01	1.3970978759829
6	228892	42.11	1.2788607662586
6	229449	42.21	1.1057249757194
6	230006	42.31	0.88697357360701
6	230563	42.41	0.6319372169461
6	231120	42.51	0.3498622126024
6	231677	42.61	0.052483766041789
6	232234	42.71	-0.22642258194381
6	232791	42.81	-0.45522293033819
6	233348	42.91	-0.64291890715467
6	233913	43.01	-0.79689498262923
6	234470	43.11	-0.92320899436622
6	235027	43.21	-1.0268304791456
6	235584	43.31	-1.111836188014
6	236141	43.41	-1.1815704767642
6	236698	43.51	-1.2387768819831
6	237255	43.61	-1.2857060592466
6	237812	43.71	-1.3242043300295
6	238369	43.81	-1.3557863210146
6	238926	43.91	-1.3816945536259
6	239491	44.01	-1.4029483282012
6	240048	44.11	-1.4203838260396
6	240605	44.21	-1.4346870070494
6	241162	44.31	-1.4464205972729
6	241719	44.41	-1.4513434363423
6	242276	44.51	-1.3970981142382
6	242833	44.61	-1.2788611392207
6	243390	44.71	-1.1057254524978
6	243947	44.81	-0.88697412700043
6	244504	44.91	-0.63193782326394
6	245069	45.01	-0.34986285146203
6	245626	45.11	-0.052484406502273
6	246183	45.21	0.22642205654293
6	246740	45.31	0.45522249932652
6	247297	45.41	0.64291855357439
6	247854	45.51	0.7968946925704
6	248411	45.61	0.92320875641683
6	248968	45.71	1.0268302839439
6	249525	45.81	1.1118360278807
6	250082	45.91	1.1815703453994
6	250647	46.01	1.2387767742183
6	251204	46.11	1.285705970842
6	251761	46.21	1.3242042575069
6	252318	46.31	1.3557862615201
6	252875	46.41	1.3816945048191
6	253432	46.51	1.4029482881629
6	253989	46.61	1.4203837931944
6	254546	46.71	1.4346869801042
6	255103	46.81	1.4464205751686
6	255660	46.91	1.4513434107954
6	256225	47.01	1.3970980258208
6	256782	47.11	1.2788610008133
6	257339	47.21	1.1057252755645
6	257896	47.31	0.88697392163581
6	258453	47.41	0.63193759825886
5	232	1.11	36.55
5	788	1.21	36.55
5	1344	1.31	36.55
5	1900	1.41	36.55
5	2456	1.51	36.55
5	3012	1.61	36.55
5	3568	1.71	36.55
5	4124	1.81	36.55
5	4680	1.91	36.55
5	5244	2.01	36.55
5	5800	2.11	36.55
5	6356	2.21	36.55
5	6912	2.31	36.55
5	7468	2.41	36.55
5	8024	2.51	36.55
5	8580	2.61	36.55
5	9136	2.71	36.55
5	9692	2.81	36.55
5	10248	2.91	36.55
5	10812	3.01	36.55
5	11368	3.11	36.55
5	11924	3.21	36.55
5	12480	3.31	36.55
5	13036	3.41	36.55
5	13592	3.51	36.55
5	14148	3.61	36.55
5	14704	3.71	36.55
5	15260	3.81	36.55
5	15816	3.91	36.55
5	16380	4.01	36.55
5	16936	4.11	36.55
5	17492	4.21	36.55
5	18048	4.31	36.55
5	18604	4.41	36.55
5	19160	4.51	36.55
5	19716	4.61	36.55
5	20272	4.71	36.55
5	20828	4.81	36.55
5	21384	4.91	36.55
5	21949	5.01	36.55
5	22506	5.11	36.55
5	23063	5.21	36.55
5	23620	5.31	36.55
5	24177	5.41	36.55
5	24734	5.51	36.55
5	25291	5.61	36.55
5	25848	5.71	36.55
5	26405	5.81	36.55
5	26962	5.91	36.55
5	27527	6.01	36.55
5	28084	6.11	36.55
5	28641	6.21	36.55
5	29198	6.31	36.55
5	29755	6.41	36.55
5	30312	6.51	36.55
5	30869	6.61	36.55
5	31426	6.71	36.55
5	31983	6.81	36.55
5	32540	6.91	36.55
5	33105	7.01	36.55
5	33662	7.11	36.55
5	34219	7.21	36.55
5	34776	7.31	36.55
5	35333	7.41	36.55
5	35890	7.51	36.55
5	36447	7.61	36.55
5	37004	7.71	36.55
5	37561	7.81	36.55
5	38118	7.91	36.55
5	38683	8.01	36.55
5	39240	8.11	36.55
5	39797	8.21	36.55
5	40354	8.31	36.55
5	40911	8.41	36.55
5	41468	8.51	36.55
5	42025	8.61	36.55
5	42582	8.71	36.55
5	43139	8.81	36.55
5	43696	8.91	36.55
5	44261	9.01	36.55
5	44818	9.11	36.55
5	45375	9.21	36.55
5	45932	9.31	36.55
5	46489	9.41	36.55
5	47046	9.51	36.55
5	47603	9.61	36.55
5	48160	9.71	36.55
5	48717	9.81	36.55
5	49274	9.91	36.55
5	49839	10.01	36.55
5	50396	10.11	36.55
5	50953	10.21	36.55
5	51510	10.31	36.55
5	52067	10.41	36.55
5	52624	10.51	36.55
5	53181	10.61	36.55
5	53738	10.71	36.55
5	54295	10.81	36.55
5	54852	10.91	36.55
5	55417	11.01	36.55
5	55974	11.11	36.55
5	56531	11.21	36.55
5	57088	11.31	36.55
5	57645	11.41	36.55
5	58202	11.51	36.55
5	58759	11.61	36.55
5	59316	11.71	36.55
5	59873	11.81	36.55
5	60430	11.91	36.55
5	60995	12.01	36.55
5	61552	12.11	36.55
5	62109	12.21	36.55
5	62666	12.31	36.55
5	63223	12.41	36.55
5	63780	12.51	36.55
5	64337	12.61	36.55
5	64894	12.71	36.55
5	65451	12.81	36.55
5	66008	12.91	36.55
5	66573	13.01	36.55
5	67130	13.11	36.55
5	67687	13.21	36.55
5	68244	13.31	36.55
5	68801	13.41	36.55
5	69358	13.51	36.55
5	69915	13.61	36.55
5	70472	13.71	36.55
5	71029	13.81	36.55
5	71586	13.91	36.55
5	72151	14.01	36.55
5	72708	14.11	36.55
5	73265	14.21	36.55
5	73822	14.31	36.55
5	74379	14.41	36.55
5	74936	14.51	36.55
5	75493	14.61	36.55
5	76050	14.71	36.55
5	76607	14.81	36.55
5	77164	14.91	36.55
5	77729	15.01	36.55
5	78286	15.11	36.55
5	78843	15.21	36.55
5	79400	15.31	36.55
5	79957	15.41	36.55
5	80514	15.51	36.55
5	81071	15.61	36.55
5	81628	15.71	36.55
5	82185	15.81	36.55
5	82742	15.91	36.55
5	83307	16.01	36.55
5	83864	16.11	36.55
5	84421	16.21	36.55
5	84978	16.31	36.55
5	85535	16.41	36.55
5	86092	16.51	36.55
5	86649	16.61	36.55
5	87206	16.71	36.55
5	87763	16.81	36.55
5	88320	16.91	36.55
5	88885	17.01	36.55
5	89442	17.11	36.55
5	89999	17.21	36.55
5	90556	17.31	36.55
5	91113	17.41	36.55
5	91670	17.51	36.55
5	92227	17.61	36.55
5	92784	17.71	36.55
5	93341	17.81	36.55
5	93898	17.91	36.55
5	94463	18.01	36.55
5	95020	18.11	36.55
5	95577	18.21	36.55
5	96134	18.31	36.55
5	96691	18.41	36.55
5	97248	18.51	36.55
5	97805	18.61	36.55
5	98362	18.71	36.55
5	98919	18.81	36.55
5	99476	18.91	36.55
5	100041	19.01	36.55
5	100598	19.11	36.55
5	101155	19.21	36.55
5	101712	19.31	36.55
5	102269	19.41	36.55
5	102826	19.51	36.55
5	103383	19.61	36.55
5	103940	19.71	36.55
5	104497	19.81	36.55
5	105054	19.91	36.55
5	105619	20.01	36.55
5	106176	20.11	36.55
5	106733	20.21	36.55
5	107290	20.31	36.55
5	107847	20.41	36.55
5	108404	20.51	36.55
5	108961	20.61	36.55
5	109518	20.71	36.55
5	110075	20.81	36.55
5	110632	20.91	36.55
5	111197	21.01	36.55
5	111754	21.11	36.55
5	112311	21.21	36.55
5	112868	21.31	36.55
5	113425	21.41	36.55
5	113982	21.51	36.55
5	114539	21.61	36.55
5	115096	21.71	36.55
5	115653	21.81	36.55
5	116210	21.91	36.55
5	116775	22.01	36.55
5	117332	22.11	36.55
5	117889	22.21	36.55
5	118446	22.31	36.55
5	119003	22.41	36.55
5	119560	22.51	36.55
5	120117	22.61	36.55
5	120674	22.71	36.55
5	121231	22.81	36.55
5	121788	22.91	36.55
5	122353	23.01	36.55
5	122910	23.11	36.55
5	123467	23.21	36.55
5	124024	23.31	36.55
5	124581	23.41	36.55
5	125138	23.51	36.55
5	125695	23.61	36.55
5	126252	23.71	36.55
5	126809	23.81	36.55
5	127366	23.91	36.55
5	127931	24.01	36.55
5	128488	24.11	36.55
5	129045	24.21	36.55
5	129602	24.31	36.55
5	130159	24.41	36.55
5	130716	24.51	36.55
5	131273	24.61	36.55
5	131830	24.71	36.55
5	132387	24.81	36.55
5	132944	24.91	36.55
5	133509	25.01	36.55
5	134066	25.11	36.55
5	134623	25.21	36.55
5	135180	25.31	36.55
5	135737	25.41	36.55
5	136294	25.51	36.55
5	136851	25.61	36.55
5	137408	25.71	36.55
5	137965	25.81	36.55
5	138522	25.91	36.55
5	139087	26.01	36.55
5	139644	26.11	36.55
5	140201	26.21	36.55
5	140758	26.31	36.55
5	141315	26.41	36.55
5	141872	26.51	36.55
5	142429	26.61	36.55
5	142986	26.71	36.55
5	143543	26.81	36.55
5	144100	26.91	36.55
5	144665	27.01	36.55
5	145222	27.11	36.55
5	145779	27.21	36.55
5	146336	27.31	36.55
5	146893	27.41	36.55
5	147450	27.51	36.55
5	148007	27.61	36.55
5	148564	27.71	36.55
5	149121	27.81	36.55
5	149678	27.91	36.55
5	150243	28.01	36.55
5	150800	28.11	36.55
5	151357	28.21	36.55
5	151914	28.31	36.55
5	152471	28.41	36.55
5	153028	28.51	36.55
5	153585	28.61	36.55
5	154142	28.71	36.55
5	154699	28.81	36.55
5	155256	28.91	36.55
5	155821	29.01	36.55
5	156378	29.11	36.55
5	156935	29.21	36.55
5	157492	29.31	36.55
5	158049	29.41	36.55
5	158606	29.51	36.55
5	159163	29.61	36.55
5	159720	29.71	36.55
5	160277	29.81	36.55
5	160834	29.91	36.55
5	161399	30.01	36.55
5	161956	30.11	36.55
5	162513	30.21	36.55
5	163070	30.31	36.55
5	163627	30.41	36.55
5	164184	30.51	36.55
5	164741	30.61	36.55
5	165298	30.71	36.55
5	165855	30.81	36.55
5	166412	30.91	36.55
5	166977	31.01	36.55
5	167534	31.11	36.55
5	168091	31.21	36.55
5	168648	31.31	36.55
5	169205	31.41	36.55
5	169762	31.51	36.55
5	170319	31.61	36.55
5	170876	31.71	36.55
5	171433	31.81	36.55
5	171990	31.91	36.55
5	172555	32.01	36.55
5	173112	32.11	36.55
5	173669	32.21	36.55
5	174226	32.31	36.55
5	174783	32.41	36.55
5	175340	32.51	36.55
5	175897	32.61	36.55
5	176454	32.71	36.55
5	177011	32.81	36.55
5	177568	32.91	36.55
5	178133	33.01	36.55
5	178690	33.11	36.55
5	179247	33.21	36.55
5	179804	33.31	36.55
5	180361	33.41	36.55
5	180918	33.51	36.55
5	181475	33.61	36.55
5	182032	33.71	36.55
5	182589	33.81	36.55
5	183146	33.91	36.55
5	183711	34.01	36.55
5	184268	34.11	36.55
5	184825	34.21	36.55
5	185382	34.31	36.55
5	185939	34.41	36.55
5	186496	34.51	36.55
5	187053	34.61	36.55
5	187610	34.71	36.55
5	188167	34.81	36.55
5	188724	34.91	36.55
5	189289	35.01	36.55
5	189846	35.11	36.55
5	190403	35.21	36.55
5	190960	35.31	36.55
5	191517	35.41	36.55
5	192074	35.51	36.55
5	192631	35.61	36.55
5	193188	35.71	36.55
5	193745	35.81	36.55
5	194302	35.91	36.55
5	194867	36.01	36.55
5	195424	36.11	36.55
5	195981	36.21	36.55
5	196538	36.31	36.55
5	197095	36.41	36.55
5	197652	36.51	36.55
5	198209	36.61	36.55
5	198766	36.71	36.55
5	199323	36.81	36.55
5	199880	36.91	36.55
5	200445	37.01	36.55
5	201002	37.11	36.55
5	201559	37.21	36.55
5	202116	37.31	36.55
5	202673	37.41	36.55
5	203230	37.51	36.55
5	203787	37.61	36.55
5	204344	37.71	36.55
5	204901	37.81	36.55
5	205458	37.91	36.55
5	206023	38.01	36.55
5	206580	38.11	36.55
5	207137	38.21	36.55
5	207694	38.31	36.55
5	208251	38.41	36.55
5	208808	38.51	36.55
5	209365	38.61	36.55
5	209922	38.71	36.55
5	210479	38.81	36.55
5	211036	38.91	36.55
5	211601	39.01	36.55
5	212158	39.11	36.55
5	212715	39.21	36.55
5	213272	39.31	36.55
5	213829	39.41	36.55
5	214386	39.51	36.55
5	214943	39.61	36.55
5	215500	39.71	36.55
5	216057	39.81	36.55
5	216614	39.91	36.55
5	217179	40.01	36.55
5	217736	40.11	36.55
5	218293	40.21	36.55
5	218850	40.31	36.55
5	219407	40.41	36.55
5	219964	40.51	36.55
5	220521	40.61	36.55
5	221078	40.71	36.55
5	221635	40.81	36.55
5	222192	40.91	36.55
5	222757	41.01	36.55
5	223314	41.11	36.55
5	223871	41.21	36.55
5	224428	41.31	36.55
5	224985	41.41	36.55
5	225542	41.51	36.55
5	226099	41.61	36.55
5	226656	41.71	36.55
5	227213	41.81	36.55
5	227770	41.91	36.55
5	228335	42.01	36.55
5	228892	42.11	36.55
5	229449	42.21	36.55
5	230006	42.31	36.55
5	230563	42.41	36.55
5	231120	42.51	36.55
5	231677	42.61	36.55
5	232234	42.71	36.55
5	232791	42.81	36.55
5	233348	42.91	36.55
5	233913	43.01	36.55
5	234470	43.11	36.55
5	235027	43.21	36.55
5	235584	43.31	36.55
5	236141	43.41	36.55
5	236698	43.51	36.55
5	237255	43.61	36.55
5	237812	43.71	36.55
5	238369	43.81	36.55
5	238926	43.91	36.55
5	239491	44.01	36.55
5	240048	44.11	36.55
5	240605	44.21	36.55
5	241162	44.31	36.55
5	241719	44.41	36.55
5	242276	44.51	36.55
5	242833	44.61	36.55
5	243390	44.71	36.55
5	243947	44.81	36.55
5	244504	44.91	36.55
5	245069	45.01	36.55
5	245626	45.11	36.55
5	246183	45.21	36.55
5	246740	45.31	36.55
5	247297	45.41	36.55
5	247854	45.51	36.55
5	248411	45.61	36.55
5	248968	45.71	36.55
5	249525	45.81	36.55
5	250082	45.91	36.55
5	250647	46.01	36.55
5	251204	46.11	36.55
5	251761	46.21	36.55
5	252318	46.31	36.55
5	252875	46.41	36.55
5	253432	46.51	36.55
5	253989	46.61	36.55
5	254546	46.71	36.55
5	255103	46.81	36.55
5	255660	46.91	36.55
5	256225	47.01	36.55
5	256782	47.11	36.55
5	257339	47.21	36.55
5	257896	47.31	36.55
5	258453	47.41	36.55
4	232	1.11	324.77320022556
4	788	1.21	327.55097808635
4	1344	1.31	330.32875594442
4	1900	1.41	333.10653379883
4	2456	1.51	335.88431164885
4	3012	1.61	338.66208949398
4	3568	1.71	341.43986733388
4	4124	1.81	344.21764516839
4	4680	1.91	346.99542299746
4	5244	2.01	349.77320082114
4	5800	2.11	352.55097863957
4	6356	2.21	355.32875645298
4	6912	2.31	358.10653426162
4	7468	2.41	360.8843120658
4	8024	2.51	363.66208986584
4	8580	2.61	366.43986766209
4	9136	2.71	369.2176454549
4	9692	2.81	371.99542324462
4	10248	2.91	374.77320103159
4	10812	3.01	377.55097881613
4	11368	3.11	380.32875659857
4	11924	3.21	383.10653437919
4	12480	3.31	385.88431215828
4	13036	3.41	388.66208993608
4	13592	3.51	391.43986771283
4	14148	3.61	394.21764548872
4	14704	3.71	396.99542326396
4	15260	3.81	399.7732010387
4	15816	3.91	402.55097881309
4	16380	4.01	405.32875658725
4	16936	4.11	408.10653436129
4	17492	4.21	410.88431213529
4	18048	4.31	413.66208990933
4	18604	4.41	416.43986768347
4	19160	4.51	419.21764545776
4	19716	4.61	421.99542323224
4	20272	4.71	424.77320100692
4	20828	4.81	427.55097878183
4	21384	4.91	430.32875655698
4	21949	5.01	433.10653433237
4	22506	5.11	435.88431347329
4	23063	5.21	438.66231911615
4	23620	5.31	441.44132485262
4	24177	5.41	444.22255531035
4	24734	5.51	447.00756047302
4	25291	5.61	449.79807520305
4	25848	5.71	452.59578498492
4	26405	5.81	455.40209185905
4	26962	5.91	458.21814611869
4	27527	6.01	461.04489140497
4	28084	6.11	463.88310183228
4	28641	6.21	466.73341244404
4	29198	6.31	469.59634419704
4	29755	6.41	472.47232445731
4	30312	6.51	475.36170378216
4	30869	6.61	478.2647399215
4	31426	6.71	481.18138644239
4	31983	6.81	484.11111682829
4	32540	6.91	487.05294230285
4	33105	7.01	490.00544815329
4	33662	7.11	492.96683726509
4	34219	7.21	495.93497971232
4	34776	7.31	498.90746723561
4	35333	7.41	501.88167189801
4	35890	7.51	504.85488077227
4	36447	7.61	507.82459605204
4	37004	7.71	510.78875059199
4	37561	7.81	513.74564861299
4	38118	7.91	516.69389898551
4	38683	8.01	519.63236049878
4	39240	8.11	522.56009696253
4	39797	8.21	525.47634037462
4	40354	8.31	528.38046070583
4	40911	8.41	531.27194111274
4	41468	8.51	534.15035760375
4	42025	8.61	537.01536235804
4	42582	8.71	539.86667004143
4	43139	8.81	542.70404658048
4	43696	8.91	545.52729995347
4	44261	9.01	548.33627263567
4	44818	9.11	551.13083540197
4	45375	9.21	553.91088224276
4	45932	9.31	556.67632619323
4	46489	9.41	559.42709591195
4	47046	9.51	562.16313513691
4	47603	9.61	564.8846391685
4	48160	9.71	567.59246932802
4	48717	9.81	570.28811737788
4	49274	9.91	572.97360043113
4	49839	10.01	575.65135632727
4	50396	10.11	578.32414078314
4	50953	10.21	580.99492655799
4	51510	10.31	583.66664186575
4	52067	10.41	586.34180801556
4	52624	10.51	589.02249983329
4	53181	10.61	591.71041939879
4	53738	10.71	594.4069630104
4	54295	10.81	597.11327611906
4	54852	10.91	599.83029839354
4	55417	11.01	602.55880068948
4	55974	11.11	605.29941537701
4	56531	11.21	608.0526612199
4	57088	11.31	610.8189637851
4	57645	11.41	613.59867218577
4	58202	11.51	616.39207281627
4	58759	11.61	619.19940061973
4	59316	11.71	622.02084833135
4	59873	11.81	624.85657406113
4	60430	11.91	627.70669271493
4	60995	12.01	630.57099926298
4	61552	12.11	633.44864838931
4	62109	12.21	636.33821099257
4	62666	12.31	639.23776118215
4	63223	12.41	642.1449650693
4	63780	12.51	645.05716999041
4	64337	12.61	647.97149373729
4	64894	12.71	650.88504756081
4	65451	12.81	653.79528568653
4	66008	12.91	656.7001090097
4	66573	13.01	659.5977955333
4	67130	13.11	662.48693262001
4	67687	13.21	665.36636141519
4	68244	13.31	668.23513125443
4	68801	13.41	671.09246226177
4	69358	13.51	673.93771466732
4	69915	13.61	676.77036363691
4	70472	13.71	679.58997862375
4	71029	13.81	682.39620642949
4	71586	13.91	685.18875730847
4	72151	14.01	687.96739356835
4	72708	14.11	690.73192021859
4	73265	14.21	693.48217729905
4	73822	14.31	696.2180335867
4	74379	14.41	698.93938221401
4	74936	14.51	701.64628971882
4	75493	14.61	704.33937140716
4	76050	14.71	707.01987101364
4	76607	14.81	709.68957435562
4	77164	14.91	712.35071491729
4	77729	15.01	715.00587930075
4	78286	15.11	717.65791342437
4	78843	15.21	720.3097601619
4	79400	15.31	722.96412866658
4	79957	15.41	725.62326067413
4	80514	15.51	728.28899518868
4	81071	15.61	730.96284083412
4	81628	15.71	733.6460352075
4	82185	15.81	736.33959356945
4	82742	15.91	739.0443487873
4	83307	16.01	741.76098410237
4	83864	16.11	744.49006001048
4	84421	16.21	747.23203631345
4	84978	16.31	749.98729020892
4	85535	16.41	752.75613113031
4	86092	16.51	755.53881292083
4	86649	16.61	758.3355438203
4	87206	16.71	761.14649465793
4	87763	16.81	763.97180557314
4	88320	16.91	766.81159051461
4	88885	17.01	769.66575297836
4	89442	17.11	772.53359459415
4	89999	17.21	775.41380170069
4	90556	17.31	778.30453500119
4	91113	17.41	781.20352198357
4	91670	17.51	784.10814957328
4	92227	17.61	787.0155563029
4	92784	17.71	789.92281652736
4	93341	17.81	792.82727798248
4	93898	17.91	795.72674869643
4	94463	18.01	798.61943048885
4	95020	18.11	801.50384822553
4	95577	18.21	804.37879178264
4	96134	18.31	807.24326843713
4	96691	18.41	810.09646381035
4	97248	18.51	812.93770982817
4	97805	18.61	815.76645843709
4	98362	18.71	818.58226004238
4	98919	18.81	821.38474581973
4	99476	18.91	824.17361320478
4	100041	19.01	826.94861398936
4	100598	19.11	829.7095445563
4	101155	19.21	832.45623786864
4	101712	19.31	835.18855689786
4	102269	19.41	837.90639015159
4	102826	19.51	840.60982279574
4	103383	19.61	843.29952236728
4	103940	19.71	845.9767766004
4	104497	19.81	848.64340495481
4	105054	19.91	851.30166545716
4	105619	20.01	853.95416134668
4	106176	20.11	856.60374830163
4	106733	20.21	859.25335831398
4	107290	20.31	861.90566467985
4	107847	20.41	864.56287777026
4	108404	20.51	867.22681085929
4	108961	20.61	869.89895146328
4	109518	20.71	872.58051986371
4	110075	20.81	875.27251711642
4	110632	20.91	877.97576443588
4	111197	21.01	880.69093550396
4	111754	21.11	883.41858297446
4	112311	21.21	886.15916021597
4	112868	21.31	888.91303914865
4	113425	21.41	891.68052487656
4	113982	21.51	894.46186769133
4	114539	21.61	897.25727291922
4	115096	21.71	900.06690899933
4	115653	21.81	902.89091411035
4	116210	21.91	905.72940065829
4	116775	22.01	908.58227935096
4	117332	22.11	911.44887122861
4	117889	22.21	914.32787893104
4	118446	22.31	917.21747563116
4	119003	22.41	920.11539792004
4	119560	22.51	923.0190389011
4	120117	22.61	925.92554073986
4	120674	22.71	928.83197378899
4	121231	22.81	931.73567254345
4	121788	22.91	934.63443344843
4	122353	23.01	937.52644882147
4	122910	23.11	940.41023573335
4	123467	23.21	943.28457766562
4	124024	23.31	946.14847664941
4	124581	23.41	949.00111400266
4	125138	23.51	951.84181812096
4	125695	23.61	954.67003805474
4	126252	23.71	957.48532183348
4	126809	23.81	960.28729868392
4	127366	23.91	963.07566444285
4	127931	24.01	965.85016959051
4	128488	24.11	968.61060943376
4	129045	24.21	971.35681605296
4	129602	24.31	974.0886516955
4	130159	24.41	976.80600429382
4	130716	24.51	979.5089616085
4	131273	24.61	982.19819836017
4	131830	24.71	984.87500833671
4	132387	24.81	987.54121563103
4	132944	24.91	990.19908165456
4	133509	25.01	992.85121194649
4	134066	25.11	995.50046354096
4	134623	25.21	998.1497669552
4	135180	25.31	1000.8017905853
4	135737	25.41	1003.4587405153
4	136294	25.51	1006.1224265026
4	136851	25.61	1008.7943331786
4	137408	25.71	1011.475678458
4	137965	25.81	1014.1674614552
4	138522	25.91	1016.870501792
4	139087	26.01	1019.5854718436
4	139644	26.11	1022.3129231921
4	140201	26.21	1025.0533083267
4	140758	26.31	1027.8069984462
4	141315	26.41	1030.574298063
4	141872	26.51	1033.3554569833
4	142429	26.61	1036.1506801351
4	142986	26.71	1038.9601356308
4	143543	26.81	1041.7839613813
4	144100	26.91	1044.6222695795
4	144665	27.01	1047.4749718965
4	145222	27.11	1050.3413920386
4	145779	27.21	1053.2202348921
4	146336	27.31	1056.1096753495
4	146893	27.41	1059.0074512581
4	147450	27.51	1061.910956575
4	148007	27.61	1064.8173339689
4	148564	27.71	1067.7236532456
4	149121	27.81	1070.6272470817
4	149678	27.91	1073.5259103318
4	150243	28.01	1076.4178340086
4	150800	28.11	1079.3015341124
4	151357	28.21	1082.1757932464
4	151914	28.31	1085.0396127216
4	152471	28.41	1087.8921732649
4	153028	28.51	1090.7328027869
4	153585	28.61	1093.5609499405
4	154142	28.71	1096.3761624289
4	154699	28.81	1099.1780692112
4	155256	28.91	1101.9663659045
4	155821	29.01	1104.7408028091
4	156378	29.11	1107.501175084
4	156935	29.21	1110.2473146883
4	157492	29.31	1112.97908377
4	158049	29.41	1115.6963701826
4	158606	29.51	1118.3992620441
4	159163	29.61	1121.0884350645
4	159720	29.71	1123.7651838654
4	160277	29.81	1126.4313331779
4	160834	29.91	1129.0891448794
4	161399	30.01	1131.7412248261
4	161956	30.11	1134.3904302389
4	162513	30.21	1137.0396914319
4	163070	30.31	1139.6916761266
4	163627	30.41	1142.3485898167
4	164184	30.51	1145.0122417753
4	164741	30.61	1147.6841162366
4	165298	30.71	1150.3654307894
4	165855	30.81	1153.0571842808
4	166412	30.91	1155.7601961131
4	166977	31.01	1158.4751384819
4	167534	31.11	1161.2025628214
4	168091	31.21	1163.9429214999
4	168648	31.31	1166.6965856169
4	169205	31.41	1169.4638596033
4	169762	31.51	1172.2449931984
4	170319	31.61	1175.0401912754
4	170876	31.71	1177.8496219017
4	171433	31.81	1180.6734229512
4	171990	31.91	1183.5117065877
4	172555	32.01	1186.3643846148
4	173112	32.11	1189.230781106
4	173669	32.21	1192.1096012571
4	174226	32.31	1194.9990201972
4	174783	32.41	1197.8967759468
4	175340	32.51	1200.8002625804
4	175897	32.61	1203.7066228362
4	176454	32.71	1206.6129264444
4	177011	32.81	1209.5165058315
4	177568	32.91	1212.4151556328
4	178133	33.01	1215.3070666815
4	178690	33.11	1218.1907548302
4	179247	33.21	1221.0650025616
4	179804	33.31	1223.928811087
4	180361	33.41	1226.7813610522
4	180918	33.51	1229.6219803011
4	181475	33.61	1232.4501174316
4	182032	33.71	1235.2653201021
4	182589	33.81	1238.0672172347
4	183146	33.91	1240.8555044165
4	183711	34.01	1243.6299319228
4	184268	34.11	1246.3902948923
4	184825	34.21	1249.1364252675
4	185382	34.31	1251.8681851827
4	185939	34.41	1254.5854624803
4	186496	34.51	1257.2883453278
4	187053	34.61	1259.9775095713
4	187610	34.71	1262.6542499472
4	188167	34.81	1265.3203912745
4	188724	34.91	1267.978195495
4	189289	35.01	1270.6302685083
4	189846	35.11	1273.279467561
4	190403	35.21	1275.9287229395
4	190960	35.31	1278.5807022721
4	191517	35.41	1281.2376109713
4	192074	35.51	1283.9012582436
4	192631	35.61	1286.5731282683
4	193188	35.71	1289.2544385895
4	193745	35.81	1291.9461880174
4	194302	35.91	1294.6491959242
4	194867	36.01	1297.3641344805
4	195424	36.11	1300.0915551004
4	195981	36.21	1302.8319101355
4	196538	36.31	1305.5855706715
4	197095	36.41	1308.3528411281
4	197652	36.51	1311.1339712355
4	198209	36.61	1313.9291658592
4	198766	36.71	1316.7385930606
4	199323	36.81	1319.5623907083
4	199880	36.91	1322.4006709622
4	200445	37.01	1325.2533456442
4	201002	37.11	1328.1197388783
4	201559	37.21	1330.9985559028
4	202116	37.31	1333.8879718797
4	202673	37.41	1336.785724853
4	203230	37.51	1339.6892089135
4	203787	37.61	1342.5955668091
4	204344	37.71	1345.5018682595
4	204901	37.81	1348.4054456567
4	205458	37.91	1351.3040936059
4	206023	38.01	1354.1960029154
4	206580	38.11	1357.0796894178
4	207137	38.21	1359.9539355788
4	207694	38.31	1362.8177425963
4	208251	38.41	1365.6702911047
4	208808	38.51	1368.5109089387
4	209365	38.61	1371.3390446889
4	209922	38.71	1374.1542460073
4	210479	38.81	1376.956141811
4	211036	38.91	1379.7444276829
4	211601	39.01	1382.5188538949
4	212158	39.11	1385.2792155829
4	212715	39.21	1388.0253446871
4	213272	39.31	1390.7571033398
4	213829	39.41	1393.4743793822
4	214386	39.51	1396.1772609883
4	214943	39.61	1398.866424023
4	215500	39.71	1401.5431632387
4	216057	39.81	1404.2093034663
4	216614	39.91	1406.8671066565
4	217179	40.01	1409.5191787149
4	217736	40.11	1412.1683768918
4	218293	40.21	1414.8176314695
4	218850	40.31	1417.4696100636
4	219407	40.41	1420.1265180755
4	219964	40.51	1422.7901647024
4	220521	40.61	1425.4620341161
4	221078	40.71	1428.1433438545
4	221635	40.81	1430.8350927228
4	222192	40.91	1433.538100089
4	222757	41.01	1436.2530381203
4	223314	41.11	1438.980458228
4	223871	41.21	1441.7208127613
4	224428	41.31	1444.4744728041
4	224985	41.41	1447.2417427746
4	225542	41.51	1450.0228724016
4	226099	41.61	1452.8180665498
4	226656	41.71	1455.6274932795
4	227213	41.81	1458.4512904587
4	227770	41.91	1461.2895702468
4	228335	42.01	1464.1422444681
4	228892	42.11	1467.0086372536
4	229449	42.21	1469.8874538476
4	230006	42.31	1472.7768694163
4	230563	42.41	1475.6746220073
4	231120	42.51	1478.5781057135
4	231677	42.61	1481.484463284
4	232234	42.71	1484.3907644373
4	232791	42.81	1487.2943415604
4	233348	42.91	1490.1929892546
4	233913	43.01	1493.0848983246
4	234470	43.11	1495.9685846002
4	235027	43.21	1498.8428305449
4	235584	43.31	1501.7066373548
4	236141	43.41	1504.5591856625
4	236698	43.51	1507.3998033017
4	237255	43.61	1510.2279388618
4	237812	43.71	1513.0431399939
4	238369	43.81	1515.8450356146
4	238926	43.91	1518.6333213062
4	239491	44.01	1521.4077473399
4	240048	44.11	1524.1681088514
4	240605	44.21	1526.9142377806
4	241162	44.31	1529.6459962594
4	241719	44.41	1532.363272129
4	242276	44.51	1535.0661535641
4	242833	44.61	1537.7553164323
4	243390	44.71	1540.4320554882
4	243947	44.81	1543.0981955644
4	244504	44.91	1545.7559986127
4	245069	45.01	1548.4080705397
4	245626	45.11	1551.0572685959
4	246183	45.21	1553.7065230633
4	246740	45.31	1556.3585015557
4	247297	45.41	1559.0154094729
4	247854	45.51	1561.6790560109
4	248411	45.61	1564.3509253405
4	248968	45.71	1567.0322349987
4	249525	45.81	1569.7239837899
4	250082	45.91	1572.4269910817
4	250647	46.01	1575.1419290407
4	251204	46.11	1577.8693490778
4	251761	46.21	1580.609703542
4	252318	46.31	1583.3633635169
4	252875	46.41	1586.1306334204
4	253432	46.51	1588.9117629813
4	253989	46.61	1591.706957064
4	254546	46.71	1594.5163837287
4	255103	46.81	1597.3401808435
4	255660	46.91	1600.1784605674
4	256225	47.01	1603.0311347252
4	256782	47.11	1605.897527449
4	257339	47.21	1608.7763439836
4	257896	47.31	1611.6657594962
4	258453	47.41	1614.5635120345
3	232	1.11	27.777778619612
3	788	1.21	27.777778599967
3	1344	1.31	27.777778569105
3	1900	1.41	27.777778529595
3	2456	1.51	27.777778483698
3	3012	1.61	27.777778433385
3	3568	1.71	27.777778380352
3	4124	1.81	27.777778326039
3	4680	1.91	27.77777827165
3	5244	2.01	27.777778218173
3	5800	2.11	27.777778166406
3	6356	2.21	27.777778116967
3	6912	2.31	27.777778070327
3	7468	2.41	27.777778026819
3	8024	2.51	27.77777798666
3	8580	2.61	27.77777794997
3	9136	2.71	27.777777916782
3	9692	2.81	27.777777887063
3	10248	2.91	27.777777860724
3	10812	3.01	27.777777837628
3	11368	3.11	27.777777817609
3	11924	3.21	27.777777800471
3	12480	3.31	27.777777786005
3	13036	3.41	27.777777773991
3	13592	3.51	27.777777764203
3	14148	3.61	27.777777756416
3	14704	3.71	27.777777750412
3	15260	3.81	27.777777745977
3	15816	3.91	27.77777774291
3	16380	4.01	27.777777741018
3	16936	4.11	27.777777740126
3	17492	4.21	27.77777774007
3	18048	4.31	27.7777777407
3	18604	4.41	27.777777741882
3	19160	4.51	27.777777743495
3	19716	4.61	27.777777745434
3	20272	4.71	27.777777747604
3	20828	4.81	27.777777749925
3	21384	4.91	27.777777752329
3	21949	5.01	27.777777754758
3	22506	5.11	27.777846021452
3	23063	5.21	27.782059596653
3	23620	5.31	27.795775862036
3	24177	5.41	27.823056285431
3	24734	5.51	27.866721940626
3	25291	5.61	27.928063782047
3	25848	5.71	28.005327711868
3	26405	5.81	28.095658800357
3	26962	5.91	28.196709510244
3	27527	6.01	28.30655404332
3	28084	6.11	28.423612574297
3	28641	6.21	28.54658909619
3	29198	6.31	28.674420431867
3	29755	6.41	28.80623440578
3	30312	6.51	28.941313946553
3	30869	6.61	29.078388981218
3	31426	6.71	29.213351897492
3	31983	6.81	29.341385131305
3	32540	6.91	29.457981732945
3	33105	7.01	29.559024895864
3	33662	7.11	29.640856051762
3	34219	7.21	29.700331349918
3	34776	7.31	29.734866440411
3	35333	7.41	29.742492528104
3	35890	7.51	29.72320356612
3	36447	7.61	29.680432143932
3	37004	7.71	29.618396925437
3	37561	7.81	29.540558684394
3	38118	7.91	29.449756460671
3	38683	8.01	29.348319255796
3	39240	8.11	29.238157662213
3	39797	8.21	29.120839031188
3	40354	8.31	28.997649136664
3	40911	8.41	28.86964276111
3	41468	8.51	28.737685193533
3	42025	8.61	28.602486272297
3	42582	8.71	28.464628312097
3	43139	8.81	28.324589013804
3	43696	8.91	28.182760258515
3	44261	9.01	28.039463525222
3	44818	9.11	27.894962538668
3	45375	9.21	27.749473644999
3	45932	9.31	27.603174323409
3	46489	9.41	27.456210168651
3	47046	9.51	27.308798307138
3	47603	9.61	27.165456941051
3	48160	9.71	27.033088438825
3	48717	9.81	26.917629526736
3	49274	9.91	26.823966096352
3	49839	10.01	26.755942052805
3	50396	10.11	26.716381687291
3	50953	10.21	26.707072901132
3	51510	10.31	26.725876201723
3	52067	10.41	26.768249212414
3	52624	10.51	26.829957594714
3	53181	10.61	26.90752771624
3	53738	10.71	26.998109988574
3	54295	10.81	27.099366756701
3	54852	10.91	27.209380329303
3	55417	11.01	27.326577531569
3	55974	11.11	27.449667812217
3	56531	11.21	27.577592469696
3	57088	11.31	27.709482999991
3	57645	11.41	27.844626927306
3	58202	11.51	27.982439773336
3	58759	11.61	28.122442062297
3	59316	11.71	28.264240457043
3	59873	11.81	28.407512284116
3	60430	11.91	28.5515861915
3	60995	12.01	28.691427297144
3	61552	12.11	28.820647386679
3	62109	12.21	28.933709262078
3	62666	12.31	29.025954034973
3	63223	12.41	29.093614170539
3	63780	12.51	29.133813231597
3	64337	12.61	29.144595455085
3	64894	12.71	29.127327372936
3	65451	12.81	29.086213776084
3	66008	12.91	29.025538551786
3	66573	13.01	28.948815979671
3	67130	13.11	28.858928993054
3	67687	13.21	28.758242601384
3	68244	13.31	28.648696936139
3	68801	13.41	28.531883580877
3	69358	13.51	28.409108188466
3	69915	13.61	28.281441849017
3	70472	13.71	28.14976322948
3	71029	13.81	28.014793142794
3	71586	13.91	27.877122906629
3	72151	14.01	27.737237607429
3	72708	14.11	27.595535185033
3	73265	14.21	27.452342088714
3	73822	14.31	27.307926120577
3	74379	14.41	27.162546024449
3	74936	14.51	27.019330871672
3	75493	14.61	26.884559196285
3	76050	14.71	26.764258967301
3	76607	14.81	26.663521929862
3	77164	14.91	26.586493202078
3	77729	15.01	26.536374688625
3	78286	15.11	26.515419708568
3	78843	15.21	26.523668857685
3	79400	15.31	26.557383788157
3	79957	15.41	26.611989529068
3	80514	15.51	26.683733010807
3	81071	15.61	26.769535409097
3	81628	15.71	26.866871015679
3	82185	15.81	26.973667870074
3	82742	15.91	27.088226243028
3	83307	16.01	27.209151764536
3	83864	16.11	27.335300565535
3	84421	16.21	27.465734274985
3	84978	16.31	27.599683101797
3	85535	16.41	27.736515549161
3	86092	16.51	27.875713569743
3	86649	16.61	28.016852184292
3	87206	16.71	28.159582761803
3	87763	16.81	28.303619303423
3	88320	16.91	28.448676617794
3	88885	17.01	28.590971447913
3	89442	17.11	28.724006207991
3	89999	17.21	28.841930784337
3	90556	17.31	28.939810791426
3	91113	17.41	29.013638834762
3	91670	17.51	29.060332154734
3	92227	17.61	29.077746642843
3	92784	17.71	29.066350790361
3	93341	17.81	29.030054467132
3	93898	17.91	28.973331085061
3	94463	18.01	28.899850399997
3	95020	18.11	28.812622889912
3	95577	18.21	28.714118195293
3	96134	18.31	28.606362281514
3	96691	18.41	28.491017145825
3	97248	18.51	28.369446204845
3	97805	18.61	28.242767935079
3	98362	18.71	28.111899876827
3	98919	18.81	27.977594732713
3	99476	18.91	27.840469981056
3	100041	19.01	27.701032169144
3	100598	19.11	27.559696842186
3	101155	19.21	27.416804891984
3	101712	19.31	27.272635968552
3	102269	19.41	27.127465418657
3	102826	19.51	26.984833896344
3	103383	19.61	26.851159734065
3	103940	19.71	26.732358896103
3	104497	19.81	26.633424036685
3	105054	19.91	26.558413554113
3	105619	20.01	26.510454337265
3	106176	20.11	26.4917309481
3	106733	20.21	26.50196337238
3	107290	20.31	26.53730527926
3	107847	20.41	26.593245707503
3	108404	20.51	26.666084097724
3	108961	20.61	26.752784702327
3	109518	20.71	26.85085715093
3	110075	20.81	26.958258472424
3	110632	20.91	27.073312718935
3	111197	21.01	27.194645029473
3	111754	21.11	27.321127539161
3	112311	21.21	27.451835005966
3	112868	21.31	27.58600840916
3	113425	21.41	27.723025087377
3	113982	21.51	27.862374241425
3	114539	21.61	28.003636838057
3	115096	21.71	28.146469124058
3	115653	21.81	28.290589102065
3	116210	21.91	28.435718002991
3	116775	22.01	28.578225822974
3	117332	22.11	28.711663912643
3	117889	22.21	28.83014072939
3	118446	22.31	28.928685230703
3	119003	22.41	29.003257937223
3	119560	22.51	29.050748330675
3	120117	22.61	29.068986857173
3	120674	22.71	29.058323427182
3	121231	22.81	29.022627945499
3	121788	22.91	28.966397462768
3	122353	23.01	28.89332112684
3	122910	23.11	28.806425323882
3	123467	23.21	28.70819274464
3	124024	23.31	28.600660060247
3	124581	23.41	28.485498050406
3	125138	23.51	28.364077336405
3	125695	23.61	28.237522305085
3	126252	23.71	28.106755345282
3	126809	23.81	27.97253313711
3	127366	23.91	27.835476421811
3	127931	24.01	27.696094423411
3	128488	24.11	27.554804882971
3	129045	24.21	27.411950493662
3	129602	24.31	27.267812383245
3	130159	24.41	27.122668052051
3	130716	24.51	26.980114349492
3	131273	24.61	26.846588675637
3	131830	24.71	26.727991635756
3	132387	24.81	26.629302292308
3	132944	24.91	26.554567145367
3	133509	25.01	26.506902788277
3	134066	25.11	26.488484344384
3	134623	25.21	26.498987841018
3	135180	25.31	26.534552121643
3	135737	25.41	26.590674973809
3	136294	25.51	26.663663015186
3	136851	25.61	26.75048638586
3	137408	25.71	26.8486595454
3	137965	25.81	26.956143484941
3	138522	25.91	27.071265507027
3	139087	26.01	27.192653417141
3	139644	26.11	27.319181537848
3	140201	26.21	27.449926421574
3	140758	26.31	27.584130519676
3	141315	26.41	27.721172378408
3	141872	26.51	27.86054218925
3	142429	26.61	28.001821731647
3	142986	26.71	28.144667919078
3	143543	26.81	28.288799301099
3	144100	26.91	28.433937906563
3	144665	27.01	28.576474582405
3	145222	27.11	28.709967753931
3	145779	27.21	28.828520179047
3	146336	27.31	28.927155771518
3	146893	27.41	29.001830636677
3	147450	27.51	29.049430435655
3	148007	27.61	29.067782111948
3	148564	27.71	29.057219263808
3	149121	27.81	29.021606294275
3	149678	27.91	28.965443500247
3	150243	28.01	28.892422692631
3	150800	28.11	28.805572442229
3	151357	28.21	28.707377231949
3	151914	28.31	28.599875203121
3	152471	28.41	28.48473834152
3	153028	28.51	28.363338257835
3	153585	28.61	28.23680015056
3	154142	28.71	28.106047074368
3	154699	28.81	27.971836255593
3	155256	28.91	27.834788883566
3	155821	29.01	27.695414549904
3	156378	29.11	27.554131297218
3	156935	29.21	27.411282066058
3	157492	29.31	27.267148187119
3	158049	29.41	27.122007456828
3	158606	29.51	26.979464462325
3	159163	29.61	26.84595922909
3	159720	29.71	26.727390247301
3	160277	29.81	26.628734707679
3	160834	29.91	26.554037471766
3	161399	30.01	26.506413715074
3	161956	30.11	26.488037261118
3	162513	30.21	26.498578083731
3	163070	30.31	26.534172984659
3	163627	30.41	26.590320956139
3	164184	30.51	26.663329604102
3	164741	30.61	26.750169879354
3	165298	30.71	26.848356906536
3	165855	30.81	26.955852222374
3	166412	30.91	27.070983576984
3	166977	31.01	27.19237914302
3	167534	31.11	27.318913544249
3	168091	31.21	27.449663580191
3	168648	31.31	27.583871904903
3	169205	31.41	27.720917230929
3	169762	31.51	27.860289886159
3	170319	31.61	28.001571761945
3	170876	31.71	28.144419863567
3	171433	31.81	28.288552815892
3	171990	31.91	28.433692757653
3	172555	32.01	28.576233407281
3	173112	32.11	28.709734164377
3	173669	32.21	28.828297001933
3	174226	32.31	28.926945139104
3	174783	32.41	29.001634073159
3	175340	32.51	29.049248939068
3	175897	32.61	29.067616197954
3	176454	32.71	29.057067201598
3	177011	32.81	29.021465595353
3	177568	32.91	28.965312123179
3	178133	33.01	28.89229896273
3	178690	33.11	28.805454985668
3	179247	33.21	28.707264921712
3	179804	33.31	28.599767114663
3	180361	33.41	28.484633716391
3	180918	33.51	28.363236473841
3	181475	33.61	28.236700697287
3	182032	33.71	28.105949533098
3	182589	33.81	27.971740282831
3	183146	33.91	27.834694197528
3	183711	34.01	27.695320919427
3	184268	34.11	27.554038532669
3	184825	34.21	27.411190011872
3	185382	34.31	27.267056715677
3	185939	34.41	27.12191648129
3	186496	34.51	26.979374961472
3	187053	34.61	26.845872543266
3	187610	34.71	26.727307425566
3	188167	34.81	26.628656541322
3	188724	34.91	26.553964526421
3	189289	35.01	26.506346361114
3	189846	35.11	26.487975689908
3	190403	35.21	26.498521652962
3	190960	35.31	26.534120770842
3	191517	35.41	26.590272201691
3	192074	35.51	26.663283687543
3	192631	35.61	26.750126290851
3	193188	35.71	26.848315227851
3	193745	35.81	26.955812110404
3	194302	35.91	27.070944750266
3	194867	36.01	27.192341370657
3	195424	36.11	27.318876636823
3	195981	36.21	27.449627382316
3	196538	36.31	27.583836289107
3	197095	36.41	27.72088209264
3	197652	36.51	27.860255139592
3	198209	36.61	28.001537336726
3	198766	36.71	28.144385701967
3	199323	36.81	28.28851887055
3	199880	36.91	28.433658996343
3	200445	37.01	28.576200193231
3	201002	37.11	28.709701994993
3	201559	37.21	28.828266266525
3	202116	37.31	28.926916131321
3	202673	37.41	29.00160700291
3	203230	37.51	29.0492239438
3	203787	37.61	29.067593348683
3	204344	37.71	29.057046259961
3	204901	37.81	29.02144621864
3	205458	37.91	28.965294030249
3	206023	38.01	28.892281922949
3	206580	38.11	28.805438809836
3	207137	38.21	28.70724945462
3	207694	38.31	28.599752228983
3	208251	38.41	28.484619307673
3	208808	38.51	28.363222456397
3	209365	38.61	28.236687000824
3	209922	38.71	28.105936099952
3	210479	38.81	27.971727065696
3	211036	38.91	27.834681157597
3	211601	39.01	27.695308024865
3	212158	39.11	27.554025757361
3	212715	39.21	27.411177334393
3	213272	39.31	27.267044118453
3	213829	39.41	27.121903952361
3	214386	39.51	26.979362635632
3	214943	39.61	26.845860605106
3	215500	39.71	26.727296019558
3	216057	39.81	26.628645776441
3	216614	39.91	26.553954480566
3	217179	40.01	26.506337085291
3	217736	40.11	26.487967210471
3	218293	40.21	26.498513881454
3	218850	40.31	26.534113580083
3	219407	40.41	26.590265487348
3	219964	40.51	26.663277364026
3	220521	40.61	26.750120287949
3	221078	40.71	26.848309487963
3	221635	40.81	26.95580658628
3	222192	40.91	27.070939403145
3	222757	41.01	27.192336168738
3	223314	41.11	27.318871554021
3	223871	41.21	27.449622397231
3	224428	41.31	27.583831384185
3	224985	41.41	27.720877253479
3	225542	41.51	27.860250354378
3	226099	41.61	28.001532595767
3	226656	41.71	28.144380997312
3	227213	41.81	28.288514195678
3	227770	41.91	28.433654346815
3	228335	42.01	28.57619561907
3	228892	42.11	28.709697564702
3	229449	42.21	28.828262033717
3	230006	42.31	28.926912136438
3	230563	42.41	29.001603274859
3	231120	42.51	29.04922050151
3	231677	42.61	29.067590201935
3	232234	42.71	29.057043375928
3	232791	42.81	29.021443550125
3	233348	42.91	28.965291538533
3	233913	43.01	28.89227957627
3	234470	43.11	28.805436582139
3	235027	43.21	28.707247324528
3	235584	43.31	28.599750178963
3	236141	43.41	28.484617323338
3	236698	43.51	28.363220525947
3	237255	43.61	28.236685114579
3	237812	43.71	28.105934249971
3	238369	43.81	27.971725245463
3	238926	43.91	27.834679361769
3	239491	44.01	27.695306249056
3	240048	44.11	27.554023997975
3	240605	44.21	27.41117558848
3	241162	44.31	27.267042383592
3	241719	44.41	27.121902226905
3	242276	44.51	26.979360938146
3	242833	44.61	26.845858961009
3	243390	44.71	26.727294448749
3	243947	44.81	26.628644293927
3	244504	44.91	26.553953097073
3	245069	45.01	26.506335807846
3	245626	45.11	26.487966042703
3	246183	45.21	26.49851281118
3	246740	45.31	26.534112589788
3	247297	45.41	26.590264562664
3	247854	45.51	26.663276493166
3	248411	45.61	26.750119461243
3	248968	45.71	26.848308697479
3	249525	45.81	26.955805825511
3	250082	45.91	27.070938666752
3	250647	46.01	27.192335452342
3	251204	46.11	27.31887085403
3	251761	46.21	27.449621710698
3	252318	46.31	27.583830708691
3	252875	46.41	27.720876587041
3	253432	46.51	27.86024969537
3	253989	46.61	28.001531942854
3	254546	46.71	28.144380349399
3	255103	46.81	28.288513551866
3	255660	46.91	28.433653706494
3	256225	47.01	28.576194989128
3	256782	47.11	28.709696954573
3	257339	47.21	28.828261450785
3	257896	47.31	28.926911586273
3	258453	47.41	29.001602761442
1	232	1.11	0
1	788	1.21	0
1	1344	1.31	0
1	1900	1.41	0
1	2456	1.51	0
1	3012	1.61	0
1	3568	1.71	0
1	4124	1.81	0
1	4680	1.91	0
1	5244	2.01	0
1	5800	2.11	0
1	6356	2.21	0
1	6912	2.31	0
1	7468	2.41	0
1	8024	2.51	0
1	8580	2.61	0
1	9136	2.71	0
1	9692	2.81	0
1	10248	2.91	0
1	10812	3.01	0
1	11368	3.11	0
1	11924	3.21	0
1	12480	3.31	0
1	13036	3.41	0
1	13592	3.51	0
1	14148	3.61	0
1	14704	3.71	0
1	15260	3.81	0
1	15816	3.91	0
1	16380	4.01	0
1	16936	4.11	0
1	17492	4.21	0
1	18048	4.31	0
1	18604	4.41	0
1	19160	4.51	0
1	19716	4.61	0
1	20272	4.71	0
1	20828	4.81	0
1	21384	4.91	0
1	21949	5.01	0
1	22506	5.11	0
1	23063	5.21	0
1	23620	5.31	0
1	24177	5.41	0
1	24734	5.51	0
1	25291	5.61	0
1	25848	5.71	0
1	26405	5.81	0
1	26962	5.91	0
1	27527	6.01	0
1	28084	6.11	0
1	28641	6.21	0
1	29198	6.31	0
1	29755	6.41	0
1	30312	6.51	0
1	30869	6.61	0
1	31426	6.71	0
1	31983	6.81	0
1	32540	6.91	0
1	33105	7.01	0
1	33662	7.11	0
1	34219	7.21	0
1	34776	7.31	0
1	35333	7.41	0
1	35890	7.51	0
1	36447	7.61	0
1	37004	7.71	0
1	37561	7.81	0
1	38118	7.91	0
1	38683	8.01	0
1	39240	8.11	0
1	39797	8.21	0
1	40354	8.31	0
1	40911	8.41	0
1	41468	8.51	0
1	42025	8.61	0
1	42582	8.71	0
1	43139	8.81	0
1	43696	8.91	0
1	44261	9.01	0
1	44818	9.11	0
1	45375	9.21	0
1	45932	9.31	0
1	46489	9.41	0
1	47046	9.51	0
1	47603	9.61	0
1	48160	9.71	0
1	48717	9.81	0
1	49274	9.91	0
1	49839	10.01	0
1	50396	10.11	0
1	50953	10.21	0
1	51510	10.31	0
1	52067	10.41	0
1	52624	10.51	0
1	53181	10.61	0
1	53738	10.71	0
1	54295	10.81	0
1	54852	10.91	0
1	55417	11.01	0
1	55974	11.11	0
1	56531	11.21	0
1	57088	11.31	0
1	57645	11.41	0
1	58202	11.51	0
1	58759	11.61	0
1	59316	11.71	0
1	59873	11.81	0
1	60430	11.91	0
1	60995	12.01	0
1	61552	12.11	0
1	62109	12.21	0
1	62666	12.31	0
1	63223	12.41	0
1	63780	12.51	0
1	64337	12.61	0
1	64894	12.71	0
1	65451	12.81	0
1	66008	12.91	0
1	66573	13.01	0
1	67130	13.11	0
1	67687	13.21	0
1	68244	13.31	0
1	68801	13.41	0
1	69358	13.51	0
1	69915	13.61	0
1	70472	13.71	0
1	71029	13.81	0
1	71586	13.91	0
1	72151	14.01	0
1	72708	14.11	0
1	73265	14.21	0
1	73822	14.31	0
1	74379	14.41	0
1	74936	14.51	0
1	75493	14.61	0
1	76050	14.71	0
1	76607	14.81	0
1	77164	14.91	0
1	77729	15.01	0
1	78286	15.11	0
1	78843	15.21	0
1	79400	15.31	0
1	79957	15.41	0
1	80514	15.51	0
1	81071	15.61	0
1	81628	15.71	0
1	82185	15.81	0
1	82742	15.91	0
1	83307	16.01	0
1	83864	16.11	0
1	84421	16.21	0
1	84978	16.31	0
1	85535	16.41	0
1	86092	16.51	0
1	86649	16.61	0
1	87206	16.71	0
1	87763	16.81	0
1	88320	16.91	0
1	88885	17.01	0
1	89442	17.11	0
1	89999	17.21	0
1	90556	17.31	0
1	91113	17.41	0
1	91670	17.51	0
1	92227	17.61	0
1	92784	17.71	0
1	93341	17.81	0
1	93898	17.91	0
1	94463	18.01	0
1	95020	18.11	0
1	95577	18.21	0
1	96134	18.31	0
1	96691	18.41	0
1	97248	18.51	0
1	97805	18.61	0
1	98362	18.71	0
1	98919	18.81	0
1	99476	18.91	0
1	100041	19.01	0
1	100598	19.11	0
1	101155	19.21	0
1	101712	19.31	0
1	102269	19.41	0
1	102826	19.51	0
1	103383	19.61	0
1	103940	19.71	0
1	104497	19.81	0
1	105054	19.91	0
1	105619	20.01	0
1	106176	20.11	0
1	106733	20.21	0
1	107290	20.31	0
1	107847	20.41	0
1	108404	20.51	0
1	108961	20.61	0
1	109518	20.71	0
1	110075	20.81	0
1	110632	20.91	0
1	111197	21.01	0
1	111754	21.11	0
1	112311	21.21	0
1	112868	21.31	0
1	113425	21.41	0
1	113982	21.51	0
1	114539	21.61	0
1	115096	21.71	0
1	115653	21.81	0
1	116210	21.91	0
1	116775	22.01	0
1	117332	22.11	0
1	117889	22.21	0
1	118446	22.31	0
1	119003	22.41	0
1	119560	22.51	0
1	120117	22.61	0
1	120674	22.71	0
1	121231	22.81	0
1	121788	22.91	0
1	122353	23.01	0
1	122910	23.11	0
1	123467	23.21	0
1	124024	23.31	0
1	124581	23.41	0
1	125138	23.51	0
1	125695	23.61	0
1	126252	23.71	0
1	126809	23.81	0
1	127366	23.91	0
1	127931	24.01	0
1	128488	24.11	0
1	129045	24.21	0
1	129602	24.31	0
1	130159	24.41	0
1	130716	24.51	0
1	131273	24.61	0
1	131830	24.71	0
1	132387	24.81	0
1	132944	24.91	0
1	133509	25.01	0
1	134066	25.11	0
1	134623	25.21	0
1	135180	25.31	0
1	135737	25.41	0
1	136294	25.51	0
1	136851	25.61	0
1	137408	25.71	0
1	137965	25.81	0
1	138522	25.91	0
1	139087	26.01	0
1	139644	26.11	0
1	140201	26.21	0
1	140758	26.31	0
1	141315	26.41	0
1	141872	26.51	0
1	142429	26.61	0
1	142986	26.71	0
1	143543	26.81	0
1	144100	26.91	0
1	144665	27.01	0
1	145222	27.11	0
1	145779	27.21	0
1	146336	27.31	0
1	146893	27.41	0
1	147450	27.51	0
1	148007	27.61	0
1	148564	27.71	0
1	149121	27.81	0
1	149678	27.91	0
1	150243	28.01	0
1	150800	28.11	0
1	151357	28.21	0
1	151914	28.31	0
1	152471	28.41	0
1	153028	28.51	0
1	153585	28.61	0
1	154142	28.71	0
1	154699	28.81	0
1	155256	28.91	0
1	155821	29.01	0
1	156378	29.11	0
1	156935	29.21	0
1	157492	29.31	0
1	158049	29.41	0
1	158606	29.51	0
1	159163	29.61	0
1	159720	29.71	0
1	160277	29.81	0
1	160834	29.91	0
1	161399	30.01	0
1	161956	30.11	0
1	162513	30.21	0
1	163070	30.31	0
1	163627	30.41	0
1	164184	30.51	0
1	164741	30.61	0
1	165298	30.71	0
1	165855	30.81	0
1	166412	30.91	0
1	166977	31.01	0
1	167534	31.11	0
1	168091	31.21	0
1	168648	31.31	0
1	169205	31.41	0
1	169762	31.51	0
1	170319	31.61	0
1	170876	31.71	0
1	171433	31.81	0
1	171990	31.91	0
1	172555	32.01	0
1	173112	32.11	0
1	173669	32.21	0
1	174226	32.31	0
1	174783	32.41	0
1	175340	32.51	0
1	175897	32.61	0
1	176454	32.71	0
1	177011	32.81	0
1	177568	32.91	0
1	178133	33.01	0
1	178690	33.11	0
1	179247	33.21	0
1	179804	33.31	0
1	180361	33.41	0
1	180918	33.51	0
1	181475	33.61	0
1	182032	33.71	0
1	182589	33.81	0
1	183146	33.91	0
1	183711	34.01	0
1	184268	34.11	0
1	184825	34.21	0
1	185382	34.31	0
1	185939	34.41	0
1	186496	34.51	0
1	187053	34.61	0
1	187610	34.71	0
1	188167	34.81	0
1	188724	34.91	0
1	189289	35.01	0
1	189846	35.11	0
1	190403	35.21	0
1	190960	35.31	0
1	191517	35.41	0
1	192074	35.51	0
1	192631	35.61	0
1	193188	35.71	0
1	193745	35.81	0
1	194302	35.91	0
1	194867	36.01	0
1	195424	36.11	0
1	195981	36.21	0
1	196538	36.31	0
1	197095	36.41	0
[...]
101	245888	45.154928369849	0.100014617882
101	246445	45.254903983633	0.099975613784
101	247002	45.354918593356	0.100014609723
101	247559	45.454842199064	0.099923605708
101	248116	45.55486980081	0.100027601746
101	248673	45.654923398646	0.100053597836
101	249230	45.754872992631	0.099949593985
101	249787	45.854900582819	0.100027590188
101	250344	45.954850169266	0.099949586447
101	250909	46.054838752026	0.09998858276
101	251466	46.154879331148	0.100040579122
101	252023	46.254906906683	0.100027575535
101	252580	46.354843478677	0.099936571994
101	253137	46.454871047175	0.100027568498
101	253694	46.55484661222	0.099975565045
101	254251	46.654835173855	0.099988561635
101	254808	46.754914732121	0.100079558266
101	255365	46.854877287061	0.09996255494
101	255922	46.95483983871	0.099962551649
101	256487	47.054828387112	0.099988548402
101	257044	47.154920932292	0.10009254518
101	257601	47.254844474275	0.099923541983
101	258158	47.35487201307	0.100027538795
102	1246	1.303554150136	0.100001850073
102	1802	1.403556000209	0.100001850073
102	2358	1.503557850282	0.100001850073
102	2914	1.603559700355	0.100001850073
102	3470	1.703561550428	0.100001850073
102	4026	1.803563400501	0.100001850073
102	4582	1.903552250574	0.099988850073
102	5146	2.003554100647	0.100001850073
102	5702	2.10355595072	0.100001850073
102	6258	2.203557800793	0.100001850073
102	6814	2.303559650866	0.100001850073
102	7370	2.403561500939	0.100001850073
102	7926	2.503563351012	0.100001850073
102	8482	2.603552201085	0.099988850073
102	9038	2.703554051158	0.100001850073
102	9594	2.803555901231	0.100001850073
102	10150	2.903557751304	0.100001850073
102	10714	3.003559601377	0.100001850073
102	11270	3.10356145145	0.100001850073
102	11826	3.203563301523	0.100001850073
102	12382	3.303552151596	0.099988850073
102	12938	3.403554001669	0.100001850073
102	13494	3.503555851742	0.100001850073
102	14050	3.603557701815	0.100001850073
102	14606	3.703559551888	0.100001850073
102	15162	3.803561401961	0.100001850073
102	15718	3.903563252034	0.100001850073
102	16282	4.003552102107	0.099988850073
102	16838	4.10355395218	0.100001850073
102	17394	4.203555802253	0.100001850073
102	17950	4.303557652326	0.100001850073
102	18506	4.403559502399	0.100001850073
102	19062	4.503561352472	0.100001850073
102	19618	4.603563202545	0.100001850073
102	20174	4.703552052618	0.099988850073
102	20730	4.803553902691	0.100001850073
102	21286	4.903555752764	0.100001850073
102	21851	5.003557602837	0.100001850073
102	22408	5.10355945291	0.100001850073
102	22965	5.203561302983	0.100001850073
102	23522	5.30356315306	0.100001850077
102	24079	5.40355200315	0.09998885009
102	24636	5.503553853271	0.100001850121
102	25193	5.603555703453	0.100001850182
102	25750	5.703557553735	0.100001850282
102	26307	5.803559404166	0.100001850431
102	26864	5.903561254802	0.100001850636
102	27429	6.003563105708	0.100001850906
102	27986	6.103551956945	0.099988851237
102	28543	6.203553808579	0.100001851634
102	29100	6.303555660678	0.100001852099
102	29657	6.403557513309	0.100001852631
102	30214	6.503559366536	0.100001853227
102	30771	6.603561220425	0.100001853889
102	31328	6.703563075037	0.100001854612
102	31885	6.803551930429	0.099988855392
102	32442	6.903553786653	0.100001856224
102	33007	7.003555643749	0.100001857096
102	33564	7.103557501744	0.100001857995
102	34121	7.203559360653	0.100001858909
102	34678	7.303561220473	0.10000185982
102	35229	7.40356308119	0.100001860717
102	35786	7.50355194277	0.09998886158
102	36343	7.603553805165	0.100001862395
102	36900	7.703555668315	0.10000186315
102	37457	7.803557532151	0.100001863836
102	38014	7.903559396604	0.100001864453
102	38579	8.003561261593	0.100001864989
102	39136	8.103563127045	0.100001865452
102	39693	8.203551992885	0.09998886584
102	40250	8.303553859037	0.100001866152
102	40807	8.403555725434	0.100001866397
102	41364	8.503557592007	0.100001866573
102	41921	8.603559458689	0.100001866682
102	42478	8.703561325421	0.100001866732
102	43035	8.803563192141	0.10000186672
102	43592	8.903552058791	0.09998886665
102	44157	9.003553925317	0.100001866526
102	44714	9.103555791662	0.100001866345
102	45271	9.203557657776	0.100001866114
102	45828	9.303559523603	0.100001865827
102	46385	9.403561389093	0.10000186549
102	46942	9.503563254192	0.100001865099
102	47499	9.603552118846	0.099988864654
102	48056	9.703553983009	0.100001864163
102	48613	9.803555846634	0.100001863625
102	49170	9.903557709691	0.100001863057
102	49735	10.003559572163	0.100001862472
102	50292	10.103561434045	0.100001861882
102	50849	10.203563295355	0.10000186131
102	51406	10.303552156123	0.099988860768
102	51963	10.403554016399	0.100001860276
102	52520	10.503555876239	0.10000185984
102	53077	10.603557735711	0.100001859472
102	53634	10.703559594887	0.100001859176
102	54191	10.80356145384	0.100001858953
102	54748	10.903563312645	0.100001858805
102	55313	11.003552171377	0.099988858732
102	55870	11.103554030108	0.100001858731
102	56427	11.203555888908	0.1000018588
102	56984	11.303557747846	0.100001858938
102	57541	11.403559606987	0.100001859141
102	58098	11.503561466394	0.100001859407
102	58655	11.603563326128	0.100001859734
102	59212	11.703552186246	0.099988860118
102	59769	11.803554046809	0.100001860563
102	60326	11.903555907869	0.10000186106
102	60891	12.003557769482	0.100001861613
102	61448	12.1035596317	0.100001862218
102	62005	12.203561494565	0.100001862865
102	62562	12.303563358106	0.100001863541
102	63119	12.403552222342	0.099988864236
102	63676	12.503554087272	0.10000186493
102	64233	12.603555952885	0.100001865613
102	64790	12.703557819145	0.10000186626
102	65347	12.803559686006	0.100001866861
102	65904	12.90356155341	0.100001867404
102	66469	13.003563421287	0.100001867877
102	67026	13.103552289566	0.099988868279
102	67583	13.203554158172	0.100001868606
102	68140	13.303556027031	0.100001868859
102	68697	13.403557896069	0.100001869038
102	69254	13.503559765211	0.100001869142
102	69811	13.603561634387	0.100001869176
102	70374	13.703563503527	0.10000186914
102	70931	13.803552372569	0.099988869042
102	71488	13.903554241447	0.100001868878
102	72053	14.003556110097	0.10000186865
102	72610	14.103557978463	0.100001868366
102	73167	14.203559846486	0.100001868023
102	73724	14.30356171411	0.100001867624
102	74281	14.403563581279	0.100001867169
102	74838	14.503552447938	0.099988866659
102	75395	14.603554314031	0.100001866093
102	75952	14.703556179512	0.100001865481
102	76509	14.803558044348	0.100001864836
102	77066	14.903559908512	0.100001864164
102	77625	15.003561771994	0.100001863482
102	78182	15.103563634802	0.100001862808
102	78739	15.203552496959	0.099988862157
102	79296	15.303554358508	0.100001861549
102	79853	15.403556219503	0.100001860995
102	80410	15.503558080006	0.100001860503
102	80967	15.603559940085	0.100001860079
102	81524	15.703561799813	0.100001859728
102	82081	15.803563659263	0.10000185945
102	82638	15.903552518506	0.099988859243
102	83203	16.003554377617	0.100001859111
102	83760	16.103556236665	0.100001859048
102	84317	16.203558095718	0.100001859053
102	84874	16.30355995484	0.100001859122
102	85431	16.403561814094	0.100001859254
102	85988	16.503563673541	0.100001859447
102	86545	16.60355253324	0.099988859699
102	87102	16.703554393248	0.100001860008
102	87659	16.803556253622	0.100001860374
102	88216	16.903558114414	0.100001860792
102	88781	17.003559975682	0.100001861268
102	89338	17.103561837473	0.100001861791
102	89895	17.203563699833	0.10000186236
102	90452	17.303552562794	0.099988862961
102	91009	17.403554426379	0.100001863585
102	91566	17.503556290594	0.100001864215
102	92129	17.603558155424	0.10000186483
102	92686	17.703560020843	0.100001865419
102	93243	17.803561886807	0.100001865964
102	93800	17.903563753257	0.10000186645
102	94365	18.003552620131	0.099988866874
102	94922	18.103554487356	0.100001867225
102	95479	18.203556354856	0.1000018675
102	96036	18.303558222559	0.100001867703
102	96593	18.40356009039	0.100001867831
102	97150	18.503561958272	0.100001867882
102	97707	18.603563826136	0.100001867864
102	98264	18.703552693914	0.099988867778
102	98821	18.803554561538	0.100001867624
102	99378	18.903556428944	0.100001867406
102	99943	19.00355829607	0.100001867126
102	100500	19.103560162856	0.100001866786
102	101057	19.203562029242	0.100001866386
102	101614	19.303563895172	0.10000186593
102	102171	19.403552760593	0.099988865421
102	102728	19.503554625444	0.100001864851
102	103285	19.603556489676	0.100001864232
102	103842	19.703558353241	0.100001863565
102	104399	19.803560216105	0.100001862864
102	104956	19.903562078244	0.100001862139
102	105521	20.003563939649	0.100001861405
102	106078	20.103552800332	0.099988860683
102	106635	20.203554660318	0.100001859986
102	107192	20.303556519649	0.100001859331
102	107749	20.403558378379	0.10000185873
102	108306	20.503560236572	0.100001858193
102	108863	20.603562094298	0.100001857726
102	109420	20.703563951631	0.100001857333
102	109977	20.803552808644	0.099988857013
102	110528	20.903554665408	0.100001856764
102	111093	21.003556522001	0.100001856593
102	111650	21.103558378487	0.100001856486
102	112207	21.203560234938	0.100001856451
102	112764	21.303562091418	0.10000185648
102	113321	21.403563947994	0.100001856576
102	113878	21.503552804723	0.099988856729
102	114435	21.603554661666	0.100001856943
102	114992	21.703556518879	0.100001857213
102	115549	21.80355837642	0.100001857541
102	116106	21.90356023434	0.10000185792
102	116671	22.003562092699	0.100001858359
102	117228	22.103563951548	0.100001858849
102	117785	22.20355281093	0.099988859382
102	118348	22.303554670878	0.100001859948
102	118905	22.403556531416	0.100001860538
102	119462	22.50355839255	0.100001861134
102	120019	22.603560254272	0.100001861722
102	120576	22.703562116551	0.100001862279
102	121133	22.803563979347	0.100001862796
102	121690	22.903552842605	0.099988863258
102	122255	23.003554706259	0.100001863654
102	122812	23.103556570237	0.100001863978
102	123369	23.203558434469	0.100001864232
102	123926	23.303560298876	0.100001864407
102	124483	23.403562163387	0.100001864511
102	125040	23.50356402793	0.100001864543
102	125597	23.603552892431	0.099988864501
102	126154	23.703554756823	0.100001864392
102	126711	23.803556621043	0.10000186422
102	127268	23.903558485024	0.100001863981
102	127833	24.003560348704	0.10000186368
102	128390	24.103562212024	0.10000186332
102	128947	24.203564074928	0.100001862904
102	129504	24.303552937358	0.09998886243
102	130061	24.40355479926	0.100001861902
102	130618	24.503556660577	0.100001861317
102	131175	24.603558521259	0.100001860682
102	131732	24.703560381263	0.100001860004
102	132289	24.803562240549	0.100001859286
102	132846	24.903564099096	0.100001858547
102	133411	25.003552956901	0.099988857805
102	133968	25.103554813971	0.10000185707
102	134525	25.203556670332	0.100001856361
102	135082	25.30355852603	0.100001855698
102	135639	25.403560381118	0.100001855088
102	136196	25.503562235661	0.100001854543
102	136753	25.603564089731	0.10000185407
102	137310	25.703552943401	0.09998885367
102	137861	25.803554796743	0.100001853342
102	138418	25.903556649836	0.100001853093
102	138983	26.00355850275	0.100001852914
102	139540	26.103560355552	0.100001852802
102	140097	26.203562208317	0.100001852765
102	140654	26.30356406111	0.100001852793
102	141211	26.403552913994	0.099988852884
102	141768	26.503554767029	0.100001853035
102	142325	26.603556620276	0.100001853247
102	142882	26.703558473796	0.10000185352
102	143439	26.80356032764	0.100001853844
102	143996	26.903562181869	0.100001854229
102	144561	27.003564036537	0.100001854668
102	145118	27.103552891694	0.099988855157
102	145675	27.203554747386	0.100001855692
102	146232	27.303556603652	0.100001856266
102	146789	27.40355846051	0.100001856858
102	147352	27.50356031797	0.10000185746
102	147909	27.603562176021	0.100001858051
102	148466	27.703564034636	0.100001858615
102	149023	27.803552893774	0.099988859138
102	149580	27.90355475338	0.100001859606
102	150145	28.003556613387	0.100001860007
102	150702	28.103558473729	0.100001860342
102	151259	28.203560334331	0.100001860602
102	151816	28.303562195119	0.100001860788
102	152373	28.403564056019	0.1000018609
102	152930	28.50355291696	0.099988860941
102	153487	28.60355477787	0.10000186091
102	154044	28.703556638684	0.100001860814
102	154601	28.803558499333	0.100001860649
102	155158	28.903560359754	0.100001860421
102	155723	29.003562219887	0.100001860133
102	156280	29.103564079675	0.100001859788
102	156837	29.203552939058	0.099988859383
102	157394	29.30355479798	0.100001858922
102	157951	29.403556656387	0.100001858407
102	158508	29.503558514223	0.100001857836
102	159065	29.603560371438	0.100001857215
102	159622	29.703562227987	0.100001856549
102	160179	29.803564083833	0.100001855846
102	160736	29.903552938959	0.099988855126
102	161301	30.003554793354	0.100001854395
102	161858	30.10355664703	0.100001853676
102	162415	30.203558500015	0.100001852985
102	162972	30.303560352352	0.100001852337
102	163529	30.403562204093	0.100001851741
102	164086	30.503564055301	0.100001851208
102	164637	30.603552906046	0.099988850745
102	165194	30.703554756397	0.100001850351
102	165751	30.803556606429	0.100001850032
102	166308	30.90355845621	0.100001849781
102	166873	31.003560305814	0.100001849604
102	167430	31.103562155309	0.100001849495
102	167987	31.203564004762	0.100001849453
102	168544	31.303552854234	0.099988849472
102	169101	31.40355470379	0.100001849556
102	169658	31.50355655349	0.1000018497
102	170215	31.603558403389	0.100001849899
102	170772	31.703560253542	0.100001850153
102	171329	31.803562104006	0.100001850464
102	171886	31.903563954831	0.100001850825
102	172451	32.00355280607	0.099988851239
102	173008	32.103554657769	0.100001851699
102	173565	32.203556509968	0.100001852199
102	174122	32.303558362696	0.100001852728
102	174679	32.403560215969	0.100001853273
102	175236	32.503562069784	0.100001853815
102	175793	32.603563924122	0.100001854338
102	176350	32.703552778948	0.099988854826
102	176907	32.803554634207	0.100001855259
102	177464	32.903556489829	0.100001855622
102	178029	33.003558345734	0.100001855905
102	178586	33.10356020184	0.100001856106
102	179143	33.203562058056	0.100001856216
102	179700	33.30356391429	0.100001856234
102	180257	33.403552770448	0.099988856158
102	180814	33.503554626437	0.100001855989
102	181371	33.603556482168	0.100001855731
102	181928	33.703558337548	0.10000185538
102	182485	33.803560192491	0.100001854943
102	183042	33.903562046908	0.100001854417
102	183607	34.003563900712	0.100001853804
102	184164	34.103552753822	0.09998885311
102	184721	34.203554606153	0.100001852331
102	185278	34.303556457623	0.10000185147
102	185835	34.403558308148	0.100001850525
102	186392	34.503560157647	0.100001849499
102	186949	34.603562006043	0.100001848396
102	187506	34.703563853261	0.100001847218
102	188063	34.803552699238	0.099988845977
102	188620	34.903554543923	0.100001844685
102	189185	35.003556387282	0.100001843359
102	189742	35.103558229296	0.100001842014
102	190299	35.203560069964	0.100001840668
102	190856	35.303561909297	0.100001839333
102	191413	35.403563747322	0.100001838025
102	191970	35.503552584074	0.099988836752
102	192527	35.603554419593	0.100001835519
102	193084	35.703556253921	0.100001834328
102	193641	35.803558087105	0.100001833184
102	194198	35.903559919186	0.100001832081
102	194763	36.003561750207	0.100001831021
102	195320	36.103563580209	0.100001830002
102	195877	36.20355240923	0.099988829021
102	196434	36.303554237302	0.100001828072
102	196991	36.403556064457	0.100001827155
102	197548	36.503557890729	0.100001826272
102	198105	36.603559716144	0.100001825415
102	198662	36.703561540727	0.100001824583
102	199219	36.803563364502	0.100001823775
102	199776	36.903552187496	0.099988822994
102	200341	37.00355400973	0.100001822234
102	200898	37.103555831222	0.100001821492
102	201455	37.203557651986	0.100001820764
102	202012	37.303559472027	0.100001820041
102	202569	37.403561291333	0.100001819306
102	203126	37.503563109874	0.100001818541
102	203683	37.603551927614	0.09998881774
102	204240	37.703553744492	0.100001816878
102	204797	37.803555560431	0.100001815939
102	205354	37.903557375343	0.100001814912
102	205919	38.003559189131	0.100001813788
102	206476	38.103561001693	0.100001812562
102	207033	38.203562812922	0.100001811229
102	207590	38.303564622715	0.100001809793
102	208147	38.40355343096	0.099988808245
102	208704	38.503555237553	0.100001806593
102	209261	38.603557042394	0.100001804841
102	209818	38.703558845381	0.100001802987
102	210375	38.803560646414	0.100001801033
102	210932	38.903562445398	0.100001798984
102	211497	39.003564242244	0.100001796846
102	212054	39.103553036854	0.09998879461
102	212611	39.203554829143	0.100001792289
102	213168	39.303556619023	0.10000178988
102	213725	39.403558406405	0.100001787382
102	214282	39.503560191205	0.1000017848
102	214839	39.603561973336	0.100001782131
102	215396	39.703563752726	0.10000177939
102	215953	39.803552529307	0.099988776581
102	216510	39.903554303028	0.100001773721
102	217075	40.003556073849	0.100001770821
102	217632	40.103557841753	0.100001767904
102	218189	40.203559606736	0.100001764983
102	218746	40.303561368809	0.100001762073
102	219303	40.403563128001	0.100001759192
102	219860	40.503551884342	0.099988756341
102	220417	40.603553637877	0.100001753535
102	220974	40.703555388649	0.100001750772
102	221531	40.803557136704	0.100001748055
102	222088	40.903558882086	0.100001745382
102	222653	41.003560624842	0.100001742756
102	223210	41.103562365011	0.100001740169
102	223767	41.203564102637	0.100001737626
102	224324	41.303552837757	0.09998873512
102	224881	41.403554570405	0.100001732648
102	225438	41.503556300616	0.100001730211
102	225995	41.603558028423	0.100001727807
102	226552	41.703559753854	0.100001725431
102	227109	41.803561476944	0.10000172309
102	227666	41.903563197718	0.100001720774
102	228231	42.003551916207	0.099988718489
102	228788	42.103553632435	0.100001716228
102	229345	42.203555346422	0.100001713987
102	229902	42.303557058177	0.100001711755
102	230459	42.4035587677	0.100001709523
102	231016	42.50356047497	0.10000170727
102	231573	42.603562179953	0.100001704983
102	232130	42.703563882597	0.100001702644
102	232687	42.803552582836	0.099988700239
102	233244	42.903554280589	0.100001697753
102	233809	43.00355597577	0.100001695181
102	234366	43.103557668285	0.100001692515
102	234923	43.203559358034	0.100001689749
102	235480	43.303561044923	0.100001686889
102	236037	43.403562728855	0.100001683932
102	236594	43.503564409734	0.100001680879
102	237151	43.603553087467	0.099988677733
102	237708	43.703554761962	0.100001674495
102	238265	43.803556433134	0.100001671172
102	238822	43.903558100894	0.10000166776
102	239387	44.003559765165	0.100001664271
102	239944	44.103561425861	0.100001660696
102	240501	44.203563082908	0.100001657047
102	241058	44.303551736226	0.099988653318
102	241615	44.403553385739	0.100001649513
102	242172	44.503555031373	0.100001645634
102	242729	44.603556673056	0.100001641683
102	243286	44.703558310724	0.100001637668
102	243843	44.803559944321	0.100001633597
102	244400	44.903561573807	0.100001629486
102	244965	45.003563199157	0.10000162535
102	245522	45.103551820361	0.099988621204
102	246079	45.203553437428	0.100001617067
102	246636	45.303555050382	0.100001612954
102	247193	45.403556659261	0.100001608879
102	247750	45.503558264111	0.10000160485
102	248307	45.603559864987	0.100001600876
102	248864	45.703561461945	0.100001596958
102	249421	45.80356305504	0.100001593095
102	249978	45.90355164433	0.09998858929
102	250543	46.003553229873	0.100001585543
102	251100	46.103554811722	0.100001581849
102	251657	46.20355638993	0.100001578208
102	252214	46.303557964546	0.100001574616
102	252771	46.403559535619	0.100001571073
102	253328	46.503561103195	0.100001567576
102	253885	46.603562667316	0.100001564121
102	254442	46.703564228028	0.100001560712
102	254999	46.803552785371	0.099988557343
102	255556	46.903554339388	0.100001554017
102	256121	47.003555890117	0.100001550729
102	256678	47.103557437597	0.10000154748
102	257235	47.203558981859	0.100001544262
102	257792	47.303560522925	0.100001541066
102	258349	47.403562060804	0.100001537879
