file 1683804 1512140818                                         
version 2
run SinusoidalPosInjectionAttack-181-20171201-16:06:12-6172
attr CACCSpacing 5
attr attackAcc -30
attr attackPos 9
attr attackSpeed 150
attr attackStart 30
attr attacker 2
attr beaconInterval 0.1
attr configname SinusoidalPosInjectionAttack
attr controller 1
attr datetime 20171201-16:06:12
attr experiment SinusoidalPosInjectionAttack
attr fakeAcc "(2 == 4)"
attr fakePos "(2 == 2)"
attr fakeSpeed "(2 == 3)"
attr inifile omnetpp_181.ini
attr iterationvars "$attacker=2, $attackSpeed=150, $attackPos=9, $attackAcc=-30, $leaderSpeed=50, $controller=1, $CACCSpacing=5, $sController=\"CACC\", $attackStart=30, $0=5, $1=0, $nCars=8, $platoonSize=8, $nLanes=1, $beaconInterval=0.1, $priority=2, $packetSize=200, $ploegH=0.5, $leaderHeadway=1.2, $fakeSpeed=(2 == 3), $fakeAcc=(2 == 4), $fakePos=(2 == 2)"
attr iterationvarsf attacker=2,attackSpeed=150,attackPos=9,attackAcc=-30,leaderSpeed=50,controller=1,CACCSpacing=5,sController=CACC,attackStart=30,5,0,nCars=8,platoonSize=8,nLanes=1,beaconInterval=0.1,priority=2,packetSize=200,ploegH=0.5,leaderHeadway=1.2,fakeSpeed=(2_==_3),fakeAcc=(2_==_4),fakePos=(2_==_2)-
attr leaderHeadway 1.2
attr leaderSpeed 50
attr measurement "$attacker=2, $attackSpeed=150, $attackPos=9, $attackAcc=-30, $leaderSpeed=50, $controller=1, $CACCSpacing=5, $sController=\"CACC\", $attackStart=30, $0=5, $1=0, $nCars=8, $platoonSize=8, $nLanes=1, $beaconInterval=0.1, $priority=2, $packetSize=200, $ploegH=0.5, $leaderHeadway=1.2, $fakeSpeed=(2 == 3), $fakeAcc=(2 == 4), $fakePos=(2 == 2)"
attr nCars 8
attr nLanes 1
attr network scenario
attr packetSize 200
attr platoonSize 8
attr ploegH 0.5
attr priority 2
attr processid 6172
attr repetition 1
attr replication #1
attr resultdir results
attr runnumber 181
attr sController "\"CACC\""
attr seedset 1
param **.coreDebug false
param **.debug false
param **.headway 0.1s
param **.numberOfCars 8
param **.numberOfCarsPerPlatoon 8
param **.numberOfLanes 1
param **.numericController 1
param **.traffic.nCars 8
param **.traffic.nLanes 1
param **.traffic.platoonInsertDistance 5m
param **.traffic.platoonInsertHeadway 0s
param **.traffic.platoonInsertSpeed 50kmph
param **.traffic.platoonInsertTime "1 s"
param **.traffic.platoonLeaderHeadway 1.2s
param **.traffic.platoonSize 8
param **.traffic.platooningVType "\"vtypeauto\""
param **.traffic_type "\"PlatoonsTrafficManager\""
param *.**.nic.mac1609_4.bitrate 6Mbps
param *.**.nic.mac1609_4.txPower 100mW
param *.**.nic.mac1609_4.useServiceChannel false
param *.**.nic.phy80211p.analogueModels "xmldoc(\"config.xml\")"
param *.**.nic.phy80211p.decider "xmldoc(\"config.xml\")"
param *.**.nic.phy80211p.maxTXPower 100mW
param *.**.nic.phy80211p.sensitivity -94dBm
param *.**.nic.phy80211p.thermalNoise -95dBm
param *.**.nic.phy80211p.usePropagationDelay true
param *.**.nic.phy80211p.useThermalNoise true
param *.annotations.draw false
param *.connectionManager.alpha 2.0
param *.connectionManager.carrierFrequency "5.890e9 Hz"
param *.connectionManager.pMax 100mW
param *.connectionManager.sat -94dBm
param *.connectionManager.sendDirect true
param *.manager.autoShutdown true
param *.manager.commandLine "\"sumo --remote-port $port --seed $seed --configuration-file $configFile\""
param *.manager.configFile "\"./sumocfg/freeway.sumo.cfg\""
param *.manager.host "\"localhost\""
param *.manager.margin 25
param *.manager.moduleDisplayString "\"\""
param *.manager.moduleName "\"node\""
param *.manager.moduleType "\"Car\""
param *.manager.updateInterval 0.01s
param *.node[*].appl.attackStart 30s
param *.node[*].appl.attackerType 2
param *.node[*].appl.simulationDuration "60 s"
param *.node[*].appl_type "\"SimplePlatooningApp\""
param *.node[*].helper.nCars 8
param *.node[*].helper.nLanes 1
param *.node[*].helper.platoonSize 8
param *.node[*].helper_type "\"PositionHelper\""
param *.node[*].mobility.x 0
param *.node[*].mobility.y 0
param *.node[*].mobility.z 1.895
param *.node[*].prot.attackStart 30s
param *.node[*].prot.attackerType 2
param *.node[*].prot.attackingNode 3
param *.node[*].prot.beaconingInterval 0.1s
param *.node[*].prot.fakeAcc "(2 == 4)"
param *.node[*].prot.fakePos "(2 == 2)"
param *.node[*].prot.fakeSpeed "(2 == 3)"
param *.node[*].prot.maliciousAcc "-30 mpss"
param *.node[*].prot.maliciousSpeed 150kmph
param *.node[*].prot.packetSize 200
param *.node[*].prot.priority 2
param *.node[*].prot.shiftX "9 m"
param *.node[*].prot.useControllerAcceleration true
param *.node[*].protocol_type "\"SimplePlatooningBeaconing\""
param *.node[*].scenario.accHeadway 0.1s
param *.node[*].scenario.caccC1 0.5
param *.node[*].scenario.caccOmegaN "0.2 Hz"
param *.node[*].scenario.caccSpacing 5m
param *.node[*].scenario.caccXi 1
param *.node[*].scenario.controller "\"CACC\""
param *.node[*].scenario.engineTau "0.5 s"
param *.node[*].scenario.leaderHeadway 1.2s
param *.node[*].scenario.leaderSpeed 50kmph
param *.node[*].scenario.ploegH 0.5s
param *.node[*].scenario.ploegKd 0.7
param *.node[*].scenario.ploegKp 0.2
param *.node[*].scenario.useRealisticEngine false
param *.node[*].scenario_type "\"SinusoidalScenario\""
param *.node[*].unicast.packetLossRate 0
param *.obstacles.debug false
param *.playgroundSizeX 65000m
param *.playgroundSizeY 25000m
param *.playgroundSizeZ 50m
param *.world.use2D false
param *.world.useTorus false

vector 0  scenario.node[0].appl  distance  ETV
vector 1  scenario.node[0].appl  relativeSpeed  ETV
vector 2  scenario.node[0].appl  nodeId  ETV
vector 6  scenario.node[0].appl  acceleration  ETV
vector 7  scenario.node[0].appl  controllerAcceleration  ETV
vector 3  scenario.node[0].appl  speed  ETV
vector 4  scenario.node[0].appl  posx  ETV
vector 5  scenario.node[0].appl  posy  ETV
vector 22  scenario.node[1].appl  distance  ETV
vector 23  scenario.node[1].appl  relativeSpeed  ETV
vector 24  scenario.node[1].appl  nodeId  ETV
vector 28  scenario.node[1].appl  acceleration  ETV
vector 29  scenario.node[1].appl  controllerAcceleration  ETV
vector 25  scenario.node[1].appl  speed  ETV
vector 26  scenario.node[1].appl  posx  ETV
vector 27  scenario.node[1].appl  posy  ETV
vector 44  scenario.node[2].appl  distance  ETV
vector 45  scenario.node[2].appl  relativeSpeed  ETV
vector 46  scenario.node[2].appl  nodeId  ETV
vector 50  scenario.node[2].appl  acceleration  ETV
vector 51  scenario.node[2].appl  controllerAcceleration  ETV
vector 47  scenario.node[2].appl  speed  ETV
vector 48  scenario.node[2].appl  posx  ETV
vector 49  scenario.node[2].appl  posy  ETV
vector 66  scenario.node[3].appl  distance  ETV
vector 67  scenario.node[3].appl  relativeSpeed  ETV
vector 68  scenario.node[3].appl  nodeId  ETV
vector 72  scenario.node[3].appl  acceleration  ETV
vector 73  scenario.node[3].appl  controllerAcceleration  ETV
vector 69  scenario.node[3].appl  speed  ETV
vector 70  scenario.node[3].appl  posx  ETV
vector 71  scenario.node[3].appl  posy  ETV
vector 88  scenario.node[4].appl  distance  ETV
vector 89  scenario.node[4].appl  relativeSpeed  ETV
vector 90  scenario.node[4].appl  nodeId  ETV
vector 94  scenario.node[4].appl  acceleration  ETV
vector 95  scenario.node[4].appl  controllerAcceleration  ETV
vector 91  scenario.node[4].appl  speed  ETV
vector 92  scenario.node[4].appl  posx  ETV
vector 93  scenario.node[4].appl  posy  ETV
vector 110  scenario.node[5].appl  distance  ETV
vector 111  scenario.node[5].appl  relativeSpeed  ETV
vector 112  scenario.node[5].appl  nodeId  ETV
vector 116  scenario.node[5].appl  acceleration  ETV
vector 117  scenario.node[5].appl  controllerAcceleration  ETV
vector 113  scenario.node[5].appl  speed  ETV
vector 114  scenario.node[5].appl  posx  ETV
vector 115  scenario.node[5].appl  posy  ETV
vector 132  scenario.node[6].appl  distance  ETV
vector 133  scenario.node[6].appl  relativeSpeed  ETV
vector 134  scenario.node[6].appl  nodeId  ETV
vector 138  scenario.node[6].appl  acceleration  ETV
vector 139  scenario.node[6].appl  controllerAcceleration  ETV
vector 135  scenario.node[6].appl  speed  ETV
vector 136  scenario.node[6].appl  posx  ETV
vector 137  scenario.node[6].appl  posy  ETV
vector 154  scenario.node[7].appl  distance  ETV
vector 155  scenario.node[7].appl  relativeSpeed  ETV
vector 156  scenario.node[7].appl  nodeId  ETV
vector 160  scenario.node[7].appl  acceleration  ETV
vector 161  scenario.node[7].appl  controllerAcceleration  ETV
vector 157  scenario.node[7].appl  speed  ETV
vector 158  scenario.node[7].appl  posx  ETV
vector 159  scenario.node[7].appl  posy  ETV
vector 58  scenario.node[2].prot  frontDelay  ETV
vector 56  scenario.node[2].prot  frontDelayId  ETV
vector 102  scenario.node[4].prot  frontDelay  ETV
vector 100  scenario.node[4].prot  frontDelayId  ETV
vector 146  scenario.node[6].prot  frontDelay  ETV
vector 144  scenario.node[6].prot  frontDelayId  ETV
vector 168  scenario.node[7].prot  frontDelay  ETV
vector 166  scenario.node[7].prot  frontDelayId  ETV
vector 124  scenario.node[5].prot  frontDelay  ETV
vector 122  scenario.node[5].prot  frontDelayId  ETV
vector 35  scenario.node[1].prot  leaderDelay  ETV
vector 33  scenario.node[1].prot  leaderDelayId  ETV
vector 36  scenario.node[1].prot  frontDelay  ETV
vector 34  scenario.node[1].prot  frontDelayId  ETV
vector 57  scenario.node[2].prot  leaderDelay  ETV
vector 55  scenario.node[2].prot  leaderDelayId  ETV
vector 79  scenario.node[3].prot  leaderDelay  ETV
vector 77  scenario.node[3].prot  leaderDelayId  ETV
vector 101  scenario.node[4].prot  leaderDelay  ETV
vector 99  scenario.node[4].prot  leaderDelayId  ETV
vector 123  scenario.node[5].prot  leaderDelay  ETV
vector 121  scenario.node[5].prot  leaderDelayId  ETV
vector 145  scenario.node[6].prot  leaderDelay  ETV
vector 143  scenario.node[6].prot  leaderDelayId  ETV
vector 167  scenario.node[7].prot  leaderDelay  ETV
vector 165  scenario.node[7].prot  leaderDelayId  ETV
vector 80  scenario.node[3].prot  frontDelay  ETV
vector 78  scenario.node[3].prot  frontDelayId  ETV
vector 8  scenario.node[0].prot  nodeId  ETV
vector 9  scenario.node[0].prot  busyTime  ETV
vector 10  scenario.node[0].prot  collisions  ETV
vector 30  scenario.node[1].prot  nodeId  ETV
vector 31  scenario.node[1].prot  busyTime  ETV
vector 32  scenario.node[1].prot  collisions  ETV
vector 52  scenario.node[2].prot  nodeId  ETV
vector 53  scenario.node[2].prot  busyTime  ETV
vector 54  scenario.node[2].prot  collisions  ETV
vector 74  scenario.node[3].prot  nodeId  ETV
vector 75  scenario.node[3].prot  busyTime  ETV
vector 76  scenario.node[3].prot  collisions  ETV
vector 96  scenario.node[4].prot  nodeId  ETV
vector 97  scenario.node[4].prot  busyTime  ETV
vector 98  scenario.node[4].prot  collisions  ETV
vector 118  scenario.node[5].prot  nodeId  ETV
vector 119  scenario.node[5].prot  busyTime  ETV
vector 120  scenario.node[5].prot  collisions  ETV
vector 140  scenario.node[6].prot  nodeId  ETV
vector 141  scenario.node[6].prot  busyTime  ETV
vector 142  scenario.node[6].prot  collisions  ETV
vector 162  scenario.node[7].prot  nodeId  ETV
vector 163  scenario.node[7].prot  busyTime  ETV
vector 164  scenario.node[7].prot  collisions  ETV
7	11074 13860 232 328174 1.11 59.91 589 -1.5 1.5 -14.445969899918 993.24092361736
6	24934 18587 232 328174 1.11 59.91 589 -1.472274679513 1.4513434175798 -12.507264912644 675.29835211523
5	43521 12081 232 328174 1.11 59.91 589 36.55 36.55 21527.95 786846.5725
4	55602 17921 232 328174 1.11 59.91 589 96.994281387196 917.97707988514 299728.83487457 185573578.91114
3	73523 17901 232 328174 1.11 59.91 589 12.599076970844 15.853603639796 8223.2832500118 115251.79065057
1	91424 9725 232 328174 1.11 59.91 589 0 0 0 0
0	101149 10314 232 328174 1.11 59.91 589 -1 -1 -589 589
2	111463 9725 232 328174 1.11 59.91 589 0 0 0 0
10	121188 858 5168 328662 2 60 59 0 0 0 0
9	122046 1154 5168 328662 2 60 59 0.023297 0.02625 1.545797 0.040508375209
8	123200 799 5168 328662 2 60 59 0 0 0 0
29	123999 19077 233 328175 1.11 59.91 589 -1.555555192602 1.5570065793937 -15.855673444196 1038.2873494921
28	143076 19169 233 328175 1.11 59.91 589 -1.4954736405162 1.4762165103672 -12.059863861721 693.60785005278
27	162245 12670 233 328175 1.11 59.91 589 36.55 36.55 21527.95 786846.5725
26	174915 18490 233 328175 1.11 59.91 589 87.994281387329 909.09895663702 294420.64097943 180222155.05167
25	193405 18498 233 328175 1.11 59.91 589 12.582023512913 15.862412181803 8224.519496426 115296.70190312
23	211903 19792 233 328175 1.11 59.91 589 -0.12424054910308 0.12345091765668 -1.1111737650871 5.1576909956594
22	231695 18505 233 328175 1.11 59.91 589 4.8732899885471 5.1830415406085 2952.2186200754 14801.465974331
24	250200 10314 233 328175 1.11 59.91 589 1 1 589 589
36	260514 23675 1238 328624 1.297801900626 59.997807067326 588 0.099998479131 0.100011482557 58.800003647034 5.8800007396994
35	284189 23675 1238 328624 1.297801900626 59.997807067326 588 0.099998479131 0.100011482557 58.800003647034 5.8800007396994
34	307864 16099 1238 328624 1.297801900626 59.997807067326 588 1 1 588 588
33	323963 16099 1238 328624 1.297801900626 59.997807067326 588 1 1 588 588
32	340062 858 5169 328663 2 60 59 0 0 0 0
31	340920 1213 5169 328663 2 60 59 0.023297 0.02625 1.545797 0.040508375209
30	342133 858 5169 328663 2 60 59 1 1 59 59
51	342991 19065 234 328176 1.11 59.91 589 -1.5092135974097 1.5122039406897 -15.704000822998 985.15201202115
50	362056 19186 234 328176 1.11 59.91 589 -1.4841297326063 1.4674874037823 -11.908101249552 683.43372032016
49	381242 12670 234 328176 1.11 59.91 589 36.55 36.55 21527.95 786846.5725
48	393912 18493 234 328176 1.11 59.91 589 78.994281387329 900.10531320168 289116.06096948 174967932.91744
47	412405 18492 234 328176 1.11 59.91 589 12.59184348637 15.851008825246 8224.5884764076 115291.81794015
45	430897 20586 234 328176 1.11 59.91 589 -0.010773795666012 0.012241039882397 0.051618657005072 0.026701258132673
44	451483 18474 234 328176 1.11 59.91 589 4.9877400698477 5.0331337372167 2948.5813895439 14760.904812259
46	469957 10314 234 328176 1.11 59.91 589 2 2 1178 2356
58	480271 23688 832 328218 1.212435510355 59.912440678122 588 0.099998479123 0.100011482567 58.800003648101 5.8800007399128
57	503959 23702 1244 328630 1.297801930647 59.997807097322 588 0.099998479128 0.100011482561 58.800003647009 5.8800007396944
56	527661 16111 832 328218 1.212435510355 59.912440678122 588 2 2 1176 2352
55	543772 16114 1244 328630 1.297801930647 59.997807097322 588 2 2 1176 2352
54	559886 858 5170 328664 2 60 59 0 0 0 0
53	560744 1213 5170 328664 2 60 59 0.023296 0.02625 1.545796 0.040508328616
52	561957 858 5170 328664 2 60 59 2 2 118 236
73	562815 19022 235 328177 1.11 59.91 589 -1.4954488815774 1.4986508547754 -15.57302820274 956.38738241362
72	581837 19153 235 328177 1.11 59.91 589 -1.4697266269408 1.4523921507449 -11.645370988863 670.13211097647
71	600990 12670 235 328177 1.11 59.91 589 36.55 36.55 21527.95 786846.5725
70	613660 18501 235 328177 1.11 59.91 589 69.994281387329 891.1211255775 283811.43336545 169809209.80261
69	632161 18493 235 328177 1.11 59.91 589 12.606251530757 15.836008806661 8224.755996141 115287.82336692
67	650654 20311 235 328177 1.11 59.91 589 -0.02193620377763 0.021653877994089 -0.048438720938231 0.083096798995497
66	670965 18469 235 328177 1.11 59.91 589 4.9762348937027 5.0520779269416 2948.6309544304 14761.520606776
68	689434 10314 235 328177 1.11 59.91 589 3 3 1767 5301
80	699748 23713 1312 328701 1.307223960668 60.007216127282 588 0.099998479124 0.10001148239 58.799990646948 5.8799981395528
79	723461 23721 1250 328636 1.297801960667 59.997807127283 588 0.099998479124 0.100011482564 58.80000364695 5.8800007396826
78	747182 16129 1312 328701 1.307223960668 60.007216127282 588 3 3 1764 5292
77	763311 16133 1250 328636 1.297801960667 59.997807127283 588 3 3 1764 5292
76	779444 858 5171 328665 2 60 59 0 0 0 0
75	780302 1213 5171 328665 2 60 59 0.023297 0.02625 1.545797 0.040508375209
74	781515 858 5171 328665 2 60 59 3 3 177 531
95	782373 19057 236 328178 1.11 59.91 589 -1.5015734358673 1.5060862511444 -15.644734728591 971.14575514829
94	801430 19175 236 328178 1.11 59.91 589 -1.4671620223636 1.4505081438882 -11.631463047073 668.77977365918
93	820605 12670 236 328178 1.11 59.91 589 36.55 36.55 21527.95 786846.5725
92	833275 18476 236 328178 1.11 59.91 589 60.994281387329 882.12168683554 278506.94920991 164745837.15773
91	851751 18508 236 328178 1.11 59.91 589 12.607214091566 15.831996514873 8224.7622400587 115287.1110141
89	870259 20305 236 328178 1.11 59.91 589 -0.013223228742271 0.015827597329503 0.11020979220027 0.054679734266249
88	890564 18480 236 328178 1.11 59.91 589 4.9991229945966 5.0167039790225 2948.4842804118 14759.879937694
90	909044 10314 236 328178 1.11 59.91 589 4 4 2356 9424
102	919358 24292 902 328288 1.235039570397 59.935044738109 588 0.099998479117 0.100011482572 58.800003648046 5.8800007399018
101	943650 24290 1256 328642 1.297801990688 59.997807157302 588 0.099998479124 0.100011482566 58.800003646948 5.8800007396822
100	967940 16727 902 328288 1.235039570397 59.935044738109 588 4 4 2352 9408
99	984667 16125 1256 328642 1.297801990688 59.997807157302 588 4 4 2352 9408
98	1000792 858 5172 328666 2 60 59 0 0 0 0
97	1001650 1213 5172 328666 2 60 59 0.023297 0.02625 1.545797 0.040508375209
96	1002863 858 5172 328666 2 60 59 4 4 236 944
117	1003721 19663 237 328179 1.11 59.91 589 -1.5284774903854 1.5300606513299 -15.850880099186 998.12566225363
116	1023384 19796 237 328179 1.11 59.91 589 -1.4661745218426 1.4485225491788 -11.412494869547 667.46851998745
115	1043180 13259 237 328179 1.11 59.91 589 36.55 36.55 21527.95 786846.5725
114	1056439 19093 237 328179 1.11 59.91 589 51.994283294678 873.14764040946 273202.38596643 159777843.19006
113	1075532 19080 237 328179 1.11 59.91 589 12.608848693054 15.829041182727 8225.0297614491 115293.60294453
111	1094612 20742 237 328179 1.11 59.91 589 -0.020216223719077 0.020930929975467 -0.15120675987115 0.1293518882557
110	1115354 19085 237 328179 1.11 59.91 589 4.970058583801 5.0458383605621 2948.5685939172 14760.956376177
112	1134439 10903 237 328179 1.11 59.91 589 5 5 2945 14725
124	1145342 24286 1178 328558 1.297388780543 59.997380948073 588 0.099998479111 0.100011482451 58.799990647864 5.879998139736
123	1169628 24289 1262 328648 1.297802020709 59.99780718723 588 0.099998479123 0.100011482566 58.800003646855 5.8800007396636
122	1193917 16709 1178 328558 1.297388780543 59.997380948073 588 5 5 2940 14700
121	1210626 16704 1262 328648 1.297802020709 59.99780718723 588 5 5 2940 14700
120	1227330 917 5173 328667 2 60 59 0 0 0 0
119	1228247 1272 5173 328667 2 60 59 0.023297 0.02625 1.545797 0.040508375209
118	1229519 917 5173 328667 2 60 59 5 5 295 1475
139	1230436 19672 238 328180 1.11 59.91 589 -1.4999845228763 1.5046152425958 -15.636466303212 962.67102054965
138	1250108 19762 238 328180 1.11 59.91 589 -1.4605505414469 1.4432666283797 -11.408479888163 661.6626478963
137	1269870 13259 238 328180 1.11 59.91 589 36.55 36.55 21527.95 786846.5725
136	1283129 19080 238 328180 1.11 59.91 589 42.994283294678 864.1392727312 267897.94542571 154905251.77741
135	1302209 19080 238 328180 1.11 59.91 589 12.615026797057 15.821388946288 8224.9462151273 115287.64732681
133	1321289 20766 238 328180 1.11 59.91 589 -0.021678419089058 0.023301935128034 0.19767127051147 0.15560004444687
132	1342055 19064 238 328180 1.11 59.91 589 4.9933384100718 5.0188540657871 2948.4388697865 14759.434348615
134	1361119 10903 238 328180 1.11 59.91 589 6 6 3534 21204
146	1372022 24294 970 328356 1.248712630439 59.94870479809 588 0.099998479113 0.100011482458 58.799990647985 5.8799981397602
145	1396316 24266 1268 328654 1.29780205073 59.997807217279 588 0.09999847912 0.100011482569 58.800003646883 5.8800007396692
144	1420582 16704 970 328356 1.248712630439 59.94870479809 588 6 6 3528 21168
143	1437286 16695 1268 328654 1.29780205073 59.997807217279 588 6 6 3528 21168
142	1453981 917 5174 328668 2 60 59 0 0 0 0
141	1454898 1272 5174 328668 2 60 59 0.023297 0.02625 1.545797 0.040508375209
140	1456170 917 5174 328668 2 60 59 6 6 354 2124
161	1457087 19656 239 328181 1.11 59.91 589 -1.5094204042801 1.5126459099554 -15.712129929921 978.55888357175
160	1476743 19775 239 328181 1.11 59.91 589 -1.4619692834163 1.4451435686761 -11.468965638192 664.43225630538
159	1496518 13259 239 328181 1.11 59.91 589 36.55 36.55 21527.95 786846.5725
158	1509777 19067 239 328181 1.11 59.91 589 33.994282817841 855.13435659239 262593.58232291 150128006.7003
157	1528844 19093 239 328181 1.11 59.91 589 12.612710100065 15.823091754854 8224.8949177467 115287.88355374
155	1547937 20779 239 328181 1.11 59.91 589 -0.021915812966053 0.024254033984711 0.16538217939585 0.14021774160761
154	1568716 19092 239 328181 1.11 59.91 589 4.9915517824016 5.0179694510722 2948.3620768586 14758.662093445
156	1587808 10903 239 328181 1.11 59.91 589 7 7 4123 28861
168	1598711 24292 1040 328420 1.26389366046 59.963885828128 588 0.099998479114 0.100011482459 58.799990648002 5.8799981397636
167	1623003 24291 1274 328660 1.29780208075 59.997807247317 588 0.099998479122 0.100011482568 58.800003646901 5.8800007396728
166	1647294 16697 1040 328420 1.26389366046 59.963885828128 588 7 7 4116 28812
165	1663991 16707 1274 328660 1.29780208075 59.997807247317 588 7 7 4116 28812
164	1680698 917 5175 328669 2 60 59 0 0 0 0
163	1681615 1272 5175 328669 2 60 59 0.023297 0.02625 1.545797 0.040508375209
162	1682887 917 5175 328669 2 60 59 7 7 413 2891
