file 1062797 1512141361                                         
version 2
run SinusoidalPosInjectionAttack-295-20171201-16:15:41-41275
attr CACCSpacing 20
attr attackAcc -30
attr attackPos 11
attr attackSpeed 150
attr attackStart 30
attr attacker 2
attr beaconInterval 0.1
attr configname SinusoidalPosInjectionAttack
attr controller 3
attr datetime 20171201-16:15:41
attr experiment SinusoidalPosInjectionAttack
attr fakeAcc "(2 == 4)"
attr fakePos "(2 == 2)"
attr fakeSpeed "(2 == 3)"
attr inifile omnetpp_295.ini
attr iterationvars "$attacker=2, $attackSpeed=150, $attackPos=11, $attackAcc=-30, $leaderSpeed=150, $controller=3, $CACCSpacing=20, $sController=\"CONSENSUS\", $attackStart=30, $0=15, $1=0.8, $nCars=8, $platoonSize=8, $nLanes=1, $beaconInterval=0.1, $priority=2, $packetSize=200, $ploegH=0.5, $leaderHeadway=1.2, $fakeSpeed=(2 == 3), $fakeAcc=(2 == 4), $fakePos=(2 == 2)"
attr iterationvarsf attacker=2,attackSpeed=150,attackPos=11,attackAcc=-30,leaderSpeed=150,controller=3,CACCSpacing=20,sController=CONSENSUS,attackStart=30,15,0.8,nCars=8,platoonSize=8,nLanes=1,beaconInterval=0.1,priority=2,packetSize=200,ploegH=0.5,leaderHeadway=1.2,fakeSpeed=(2_==_3),fakeAcc=(2_==_4),fakePos=(2_==_2)-
attr leaderHeadway 1.2
attr leaderSpeed 150
attr measurement "$attacker=2, $attackSpeed=150, $attackPos=11, $attackAcc=-30, $leaderSpeed=150, $controller=3, $CACCSpacing=20, $sController=\"CONSENSUS\", $attackStart=30, $0=15, $1=0.8, $nCars=8, $platoonSize=8, $nLanes=1, $beaconInterval=0.1, $priority=2, $packetSize=200, $ploegH=0.5, $leaderHeadway=1.2, $fakeSpeed=(2 == 3), $fakeAcc=(2 == 4), $fakePos=(2 == 2)"
attr nCars 8
attr nLanes 1
attr network scenario
attr packetSize 200
attr platoonSize 8
attr ploegH 0.5
attr priority 2
attr processid 41275
attr repetition 0
attr replication #0
attr resultdir results
attr runnumber 295
attr sController "\"CONSENSUS\""
attr seedset 0
param **.coreDebug false
param **.debug false
param **.headway 0.1s
param **.numberOfCars 8
param **.numberOfCarsPerPlatoon 8
param **.numberOfLanes 1
param **.numericController 3
param **.traffic.nCars 8
param **.traffic.nLanes 1
param **.traffic.platoonInsertDistance 15m
param **.traffic.platoonInsertHeadway 0.8s
param **.traffic.platoonInsertSpeed 150kmph
param **.traffic.platoonInsertTime "1 s"
param **.traffic.platoonLeaderHeadway 1.2s
param **.traffic.platoonSize 8
param **.traffic.platooningVType "\"vtypeauto\""
param **.traffic_type "\"PlatoonsTrafficManager\""
param *.**.nic.mac1609_4.bitrate 6Mbps
param *.**.nic.mac1609_4.txPower 100mW
param *.**.nic.mac1609_4.useServiceChannel false
param *.**.nic.phy80211p.analogueModels "xmldoc(\"config.xml\")"
param *.**.nic.phy80211p.decider "xmldoc(\"config.xml\")"
param *.**.nic.phy80211p.maxTXPower 100mW
param *.**.nic.phy80211p.sensitivity -94dBm
param *.**.nic.phy80211p.thermalNoise -95dBm
param *.**.nic.phy80211p.usePropagationDelay true
param *.**.nic.phy80211p.useThermalNoise true
param *.annotations.draw false
param *.connectionManager.alpha 2.0
param *.connectionManager.carrierFrequency "5.890e9 Hz"
param *.connectionManager.pMax 100mW
param *.connectionManager.sat -94dBm
param *.connectionManager.sendDirect true
param *.manager.autoShutdown true
param *.manager.commandLine "\"sumo --remote-port $port --seed $seed --configuration-file $configFile\""
param *.manager.configFile "\"./sumocfg/freeway.sumo.cfg\""
param *.manager.host "\"localhost\""
param *.manager.margin 25
param *.manager.moduleDisplayString "\"\""
param *.manager.moduleName "\"node\""
param *.manager.moduleType "\"Car\""
param *.manager.updateInterval 0.01s
param *.node[*].appl.attackStart 30s
param *.node[*].appl.attackerType 2
param *.node[*].appl.simulationDuration "60 s"
param *.node[*].appl_type "\"SimplePlatooningApp\""
param *.node[*].helper.nCars 8
param *.node[*].helper.nLanes 1
param *.node[*].helper.platoonSize 8
param *.node[*].helper_type "\"PositionHelper\""
param *.node[*].mobility.x 0
param *.node[*].mobility.y 0
param *.node[*].mobility.z 1.895
param *.node[*].prot.attackStart 30s
param *.node[*].prot.attackerType 2
param *.node[*].prot.attackingNode 3
param *.node[*].prot.beaconingInterval 0.1s
param *.node[*].prot.fakeAcc "(2 == 4)"
param *.node[*].prot.fakePos "(2 == 2)"
param *.node[*].prot.fakeSpeed "(2 == 3)"
param *.node[*].prot.maliciousAcc "-30 mpss"
param *.node[*].prot.maliciousSpeed 150kmph
param *.node[*].prot.packetSize 200
param *.node[*].prot.priority 2
param *.node[*].prot.shiftX "11 m"
param *.node[*].prot.useControllerAcceleration true
param *.node[*].protocol_type "\"SimplePlatooningBeaconing\""
param *.node[*].scenario.accHeadway 0.1s
param *.node[*].scenario.caccC1 0.5
param *.node[*].scenario.caccOmegaN "0.2 Hz"
param *.node[*].scenario.caccSpacing 20m
param *.node[*].scenario.caccXi 1
param *.node[*].scenario.controller "\"CONSENSUS\""
param *.node[*].scenario.engineTau "0.5 s"
param *.node[*].scenario.leaderHeadway 1.2s
param *.node[*].scenario.leaderSpeed 150kmph
param *.node[*].scenario.ploegH 0.5s
param *.node[*].scenario.ploegKd 0.7
param *.node[*].scenario.ploegKp 0.2
param *.node[*].scenario.useRealisticEngine false
param *.node[*].scenario_type "\"SinusoidalScenario\""
param *.node[*].unicast.packetLossRate 0
param *.obstacles.debug false
param *.playgroundSizeX 65000m
param *.playgroundSizeY 25000m
param *.playgroundSizeZ 50m
param *.world.use2D false
param *.world.useTorus false

vector 0  scenario.node[0].appl  distance  ETV
vector 1  scenario.node[0].appl  relativeSpeed  ETV
vector 2  scenario.node[0].appl  nodeId  ETV
vector 6  scenario.node[0].appl  acceleration  ETV
vector 7  scenario.node[0].appl  controllerAcceleration  ETV
vector 3  scenario.node[0].appl  speed  ETV
vector 4  scenario.node[0].appl  posx  ETV
vector 5  scenario.node[0].appl  posy  ETV
vector 22  scenario.node[1].appl  distance  ETV
vector 23  scenario.node[1].appl  relativeSpeed  ETV
vector 24  scenario.node[1].appl  nodeId  ETV
vector 28  scenario.node[1].appl  acceleration  ETV
vector 29  scenario.node[1].appl  controllerAcceleration  ETV
vector 25  scenario.node[1].appl  speed  ETV
vector 26  scenario.node[1].appl  posx  ETV
vector 27  scenario.node[1].appl  posy  ETV
vector 44  scenario.node[2].appl  distance  ETV
vector 45  scenario.node[2].appl  relativeSpeed  ETV
vector 46  scenario.node[2].appl  nodeId  ETV
vector 50  scenario.node[2].appl  acceleration  ETV
vector 51  scenario.node[2].appl  controllerAcceleration  ETV
vector 47  scenario.node[2].appl  speed  ETV
vector 48  scenario.node[2].appl  posx  ETV
vector 49  scenario.node[2].appl  posy  ETV
vector 66  scenario.node[3].appl  distance  ETV
vector 67  scenario.node[3].appl  relativeSpeed  ETV
vector 68  scenario.node[3].appl  nodeId  ETV
vector 72  scenario.node[3].appl  acceleration  ETV
vector 73  scenario.node[3].appl  controllerAcceleration  ETV
vector 69  scenario.node[3].appl  speed  ETV
vector 70  scenario.node[3].appl  posx  ETV
vector 71  scenario.node[3].appl  posy  ETV
vector 88  scenario.node[4].appl  distance  ETV
vector 89  scenario.node[4].appl  relativeSpeed  ETV
vector 90  scenario.node[4].appl  nodeId  ETV
vector 94  scenario.node[4].appl  acceleration  ETV
vector 95  scenario.node[4].appl  controllerAcceleration  ETV
vector 91  scenario.node[4].appl  speed  ETV
vector 92  scenario.node[4].appl  posx  ETV
vector 93  scenario.node[4].appl  posy  ETV
vector 110  scenario.node[5].appl  distance  ETV
vector 111  scenario.node[5].appl  relativeSpeed  ETV
vector 112  scenario.node[5].appl  nodeId  ETV
vector 116  scenario.node[5].appl  acceleration  ETV
vector 117  scenario.node[5].appl  controllerAcceleration  ETV
vector 113  scenario.node[5].appl  speed  ETV
vector 114  scenario.node[5].appl  posx  ETV
vector 115  scenario.node[5].appl  posy  ETV
vector 132  scenario.node[6].appl  distance  ETV
vector 133  scenario.node[6].appl  relativeSpeed  ETV
vector 134  scenario.node[6].appl  nodeId  ETV
vector 138  scenario.node[6].appl  acceleration  ETV
vector 139  scenario.node[6].appl  controllerAcceleration  ETV
vector 135  scenario.node[6].appl  speed  ETV
vector 136  scenario.node[6].appl  posx  ETV
vector 137  scenario.node[6].appl  posy  ETV
vector 154  scenario.node[7].appl  distance  ETV
vector 155  scenario.node[7].appl  relativeSpeed  ETV
vector 156  scenario.node[7].appl  nodeId  ETV
vector 160  scenario.node[7].appl  acceleration  ETV
vector 161  scenario.node[7].appl  controllerAcceleration  ETV
vector 157  scenario.node[7].appl  speed  ETV
vector 158  scenario.node[7].appl  posx  ETV
vector 159  scenario.node[7].appl  posy  ETV
vector 80  scenario.node[3].prot  frontDelay  ETV
vector 78  scenario.node[3].prot  frontDelayId  ETV
vector 58  scenario.node[2].prot  frontDelay  ETV
vector 56  scenario.node[2].prot  frontDelayId  ETV
vector 168  scenario.node[7].prot  frontDelay  ETV
vector 166  scenario.node[7].prot  frontDelayId  ETV
vector 35  scenario.node[1].prot  leaderDelay  ETV
vector 33  scenario.node[1].prot  leaderDelayId  ETV
vector 36  scenario.node[1].prot  frontDelay  ETV
vector 34  scenario.node[1].prot  frontDelayId  ETV
vector 57  scenario.node[2].prot  leaderDelay  ETV
vector 55  scenario.node[2].prot  leaderDelayId  ETV
vector 79  scenario.node[3].prot  leaderDelay  ETV
vector 77  scenario.node[3].prot  leaderDelayId  ETV
vector 101  scenario.node[4].prot  leaderDelay  ETV
vector 99  scenario.node[4].prot  leaderDelayId  ETV
vector 123  scenario.node[5].prot  leaderDelay  ETV
vector 121  scenario.node[5].prot  leaderDelayId  ETV
vector 145  scenario.node[6].prot  leaderDelay  ETV
vector 143  scenario.node[6].prot  leaderDelayId  ETV
vector 167  scenario.node[7].prot  leaderDelay  ETV
vector 165  scenario.node[7].prot  leaderDelayId  ETV
vector 124  scenario.node[5].prot  frontDelay  ETV
vector 122  scenario.node[5].prot  frontDelayId  ETV
vector 102  scenario.node[4].prot  frontDelay  ETV
vector 100  scenario.node[4].prot  frontDelayId  ETV
vector 146  scenario.node[6].prot  frontDelay  ETV
vector 144  scenario.node[6].prot  frontDelayId  ETV
vector 8  scenario.node[0].prot  nodeId  ETV
vector 9  scenario.node[0].prot  busyTime  ETV
vector 10  scenario.node[0].prot  collisions  ETV
vector 30  scenario.node[1].prot  nodeId  ETV
vector 31  scenario.node[1].prot  busyTime  ETV
vector 32  scenario.node[1].prot  collisions  ETV
vector 52  scenario.node[2].prot  nodeId  ETV
vector 53  scenario.node[2].prot  busyTime  ETV
vector 54  scenario.node[2].prot  collisions  ETV
vector 74  scenario.node[3].prot  nodeId  ETV
vector 75  scenario.node[3].prot  busyTime  ETV
vector 76  scenario.node[3].prot  collisions  ETV
vector 96  scenario.node[4].prot  nodeId  ETV
vector 97  scenario.node[4].prot  busyTime  ETV
vector 98  scenario.node[4].prot  collisions  ETV
vector 118  scenario.node[5].prot  nodeId  ETV
vector 119  scenario.node[5].prot  busyTime  ETV
vector 120  scenario.node[5].prot  collisions  ETV
vector 140  scenario.node[6].prot  nodeId  ETV
vector 141  scenario.node[6].prot  busyTime  ETV
vector 142  scenario.node[6].prot  collisions  ETV
vector 162  scenario.node[7].prot  nodeId  ETV
vector 163  scenario.node[7].prot  busyTime  ETV
vector 164  scenario.node[7].prot  collisions  ETV
7	11129 8873 232 208251 1.11 38.41 374 -1.5 1.5 0.24588949335536 605.15780388015
6	20002 11758 232 208251 1.11 38.41 374 -1.4722746794739 1.4513430531451 6.5352963167243 403.18683527645
5	31760 7566 232 208251 1.11 38.41 374 36.55 36.55 13669.7 499627.535
4	39326 11279 232 208251 1.11 38.41 374 403.9398601528 1962.8925069653 442922.1863877 600563208.80852
3	50605 11250 232 208251 1.11 38.41 374 40.376864578797 43.631381416411 15631.430835068 653598.96921426
1	61855 6070 232 208251 1.11 38.41 374 0 0 0 0
0	67925 6444 232 208251 1.11 38.41 374 -1 -1 -374 374
2	74369 6070 232 208251 1.11 38.41 374 0 0 0 0
10	80439 528 5102 205880 2 38 37 0 0 0 0
9	80967 714 5102 205880 2 38 37 0.022969 0.02625 0.967969 0.025333824961
8	81681 491 5102 205880 2 38 37 0 0 0 0
29	82172 12066 233 208252 1.11 38.41 374 -1.9741825386407 1.9679183776543 14.353546206684 673.552483708
28	94238 12096 233 208252 1.11 38.41 374 -1.7218030140654 1.7127788857323 13.927332409949 476.48685480584
27	106334 7940 233 208252 1.11 38.41 374 36.55 36.55 13669.7 499627.535
26	114274 11645 233 208252 1.11 38.41 374 351.60651664734 1909.6713895299 423312.99935499 555167209.51016
25	125919 11643 233 208252 1.11 38.41 374 40.275795821351 43.622321813278 15622.801811585 652925.76762789
23	137562 12217 233 208252 1.11 38.41 374 -1.2227231949368 1.211532167634 8.5636705195323 257.98863627589
22	149779 11646 233 208252 1.11 38.41 374 47.288053949594 49.788176700016 18113.014452235 877405.22743503
24	161425 6444 233 208252 1.11 38.41 374 1 1 374 374
36	167869 14924 1032 208495 1.254917157172 38.454847174383 373 0.099898897638 0.100093898572 37.299945905036 3.7299898084724
35	182793 14924 1032 208495 1.254917157172 38.454847174383 373 0.099898897638 0.100093898572 37.299945905036 3.7299898084724
34	197717 10121 1032 208495 1.254917157172 38.454847174383 373 1 1 373 373
33	207838 10121 1032 208495 1.254917157172 38.454847174383 373 1 1 373 373
32	217959 528 5103 205881 2 38 37 0 0 0 0
31	218487 751 5103 205881 2 38 37 0.022969 0.02625 0.967969 0.025333824961
30	219238 528 5103 205881 2 38 37 1 1 37 37
51	219766 12103 234 208253 1.11 38.41 374 -1.470892063842 1.4591979336124 10.526915537265 387.55738913276
50	231869 12149 234 208253 1.11 38.41 374 -1.2930963903798 1.2698646709296 10.396269011858 268.31621234123
49	244018 7940 234 208253 1.11 38.41 374 36.55 36.55 13669.7 499627.535
48	251958 11621 234 208253 1.11 38.41 374 299.27320365906 1857.3942864768 403710.61044611 511842986.13871
47	263579 11624 234 208253 1.11 38.41 374 40.630359470643 43.289327821854 15623.240898549 652824.01923092
45	275203 12351 234 208253 1.11 38.41 374 -0.38764012468622 0.35987169949259 -0.57836028761329 20.139726181409
44	287554 11634 234 208253 1.11 38.41 374 48.050826629407 48.985928797072 18106.397690628 876600.87590453
46	299188 6444 234 208253 1.11 38.41 374 2 2 748 1496
58	305632 14923 900 208357 1.229662236955 38.429657282829 373 0.099989736524 0.100002907175 37.299997933699 3.7299995976457
57	320555 14937 1038 208501 1.254917331737 38.454847348808 373 0.099898897529 0.100093898503 37.299945904896 3.7299898084444
56	335492 10106 900 208357 1.229662236955 38.429657282829 373 2 2 746 1492
55	345598 10127 1038 208501 1.254917331737 38.454847348808 373 2 2 746 1492
54	355725 528 5104 205882 2 38 37 0 0 0 0
53	356253 751 5104 205882 2 38 37 0.022969 0.02625 0.967969 0.025333824961
52	357004 528 5104 205882 2 38 37 2 2 74 148
73	357532 12104 235 208254 1.11 38.41 374 -1.5377956694102 1.5283122268861 10.687316621915 417.23601029278
72	369636 12158 235 208254 1.11 38.41 374 -1.3294201723753 1.3186880830013 10.846166151209 288.32653764708
71	381794 7940 235 208254 1.11 38.41 374 36.55 36.55 13669.7 499627.535
70	389734 11625 235 208254 1.11 38.41 374 246.9398601532 1805.0976752401 384105.79630361 470555664.4828
69	401359 11634 235 208254 1.11 38.41 374 40.584580554648 43.231601400121 15623.62438635 652866.21591538
67	412993 12681 235 208254 1.11 38.41 374 -0.10270666530348 0.12549736681872 -0.48745049152215 1.1745581756614
66	425674 11632 235 208254 1.11 38.41 374 48.28691196484 48.65628977706 18108.821812251 876820.49837999
68	437306 6444 235 208254 1.11 38.41 374 3 3 1122 3366
80	443750 14916 832 208295 1.21389606239 38.413904108505 373 0.099989747771 0.100002906949 37.29999793394 3.7299995976928
79	458666 14937 1044 208507 1.254917506303 38.454847523245 373 0.099898897541 0.100093898539 37.299945904767 3.7299898084186
78	473603 10104 832 208295 1.21389606239 38.413904108505 373 3 3 1119 3357
77	483707 10118 1044 208507 1.254917506303 38.454847523245 373 3 3 1119 3357
76	493825 528 5105 205883 2 38 37 0 0 0 0
75	494353 751 5105 205883 2 38 37 0.022968 0.02625 0.967968 0.025333779024
74	495104 528 5105 205883 2 38 37 3 3 111 333
117	495632 12486 237 208256 1.11 38.41 374 -1.4308156470636 2.4570416856867 77.805640426876 443.56171773774
116	508118 12518 237 208256 1.11 38.41 374 -1.2579553960663 2.1999938283422 71.826013694907 329.44538186602
115	520636 8314 237 208256 1.11 38.41 374 36.55 36.55 13669.7 499627.535
114	528950 12002 237 208256 1.11 38.41 374 142.27319602966 1719.1518356568 345281.03447491 395388490.15543
113	540952 12023 237 208256 1.11 38.41 374 40.663590222903 48.803294736435 15812.955860363 669437.49038182
111	552975 12889 237 208256 1.11 38.41 374 -0.044719155725424 5.9591437118606 291.90988525818 1259.8159544195
110	565864 12012 237 208256 1.11 38.41 374 48.333333051008 77.449497801729 19105.814894909 993365.86501425
112	577876 6818 237 208256 1.11 38.41 374 5 5 1870 9350
124	584694 15260 1172 208084 1.265754902824 38.365747440872 372 0.099989738488 0.100002906887 37.199995425873 3.7199990960733
123	599954 15298 1056 208519 1.254917855433 38.454847809118 373 0.099898897528 0.100093898538 37.29994584151 3.7299897957674
122	615252 10459 1172 208084 1.265754902824 38.365747440872 372 5 5 1860 9300
121	625711 10491 1056 208519 1.254917855433 38.454847809118 373 5 5 1865 9325
120	636202 565 5107 205885 2 38 37 0 0 0 0
119	636767 788 5107 205885 2 38 37 0.022968 0.02625 0.967968 0.025333779024
118	637555 565 5107 205885 2 38 37 5 5 185 925
139	638120 12488 238 208257 1.11 38.41 374 -1.4213470288471 2.1166568046424 37.317484930909 393.38496424832
138	650608 12550 238 208257 1.11 38.41 374 -1.2279810812942 1.9946555003955 36.767984833126 282.59644293439
137	663158 8314 238 208257 1.11 38.41 374 36.55 36.55 13669.7 499627.535
136	671472 12011 238 208257 1.11 38.41 374 89.939863967896 1653.1288749083 325372.65593041 359240243.63515
135	683483 12012 238 208257 1.11 38.41 374 40.694492370793 45.318799864858 15674.841237275 657204.26895143
133	695495 12928 238 208257 1.11 38.41 374 -0.032981622588387 3.5285209784298 137.39636295143 379.43710325017
132	708423 12016 238 208257 1.11 38.41 374 48.333332061768 61.953270851099 18409.616252039 908494.39531045
134	720439 6818 238 208257 1.11 38.41 374 6 6 2244 13464
146	727257 15274 1312 208213 1.305165426519 38.405157692844 372 0.099989739476 0.100002906959 37.19999515415 3.7199990417281
145	742531 15305 1062 208525 1.254918029998 38.454848029811 373 0.099898897525 0.100093898535 37.299945887638 3.7299898049929
144	757836 10479 1312 208213 1.305165426519 38.405157692844 372 6 6 2232 13392
143	768315 10494 1062 208525 1.254918029998 38.454848029811 373 6 6 2238 13428
142	778809 565 5108 205886 2 38 37 0 0 0 0
141	779374 788 5108 205886 2 38 37 0.022969 0.02625 0.967969 0.025333824961
140	780162 565 5108 205886 2 38 37 6 6 222 1332
161	780727 12496 239 208258 1.11 38.41 374 -1.367431577883 1.6118561931991 19.005756837812 344.26462827603
160	793223 12555 239 208258 1.11 38.41 374 -1.1966631265246 1.4401752755745 17.146065713688 245.12529633673
159	805778 8314 239 208258 1.11 38.41 374 36.55 36.55 13669.7 499627.535
158	814092 12006 239 208258 1.11 38.41 374 37.606529998779 1596.5649314442 305707.05806407 325950564.09036
157	826098 12023 239 208258 1.11 38.41 374 40.724876641584 43.361472368733 15631.84736799 653523.94351119
155	838121 13006 239 208258 1.11 38.41 374 -0.032898840474743 1.9489727608983 42.62618943702 51.321784693917
154	851127 12015 239 208258 1.11 38.41 374 48.333333279561 52.524796914163 18168.737988956 882774.07407952
156	863142 6818 239 208258 1.11 38.41 374 7 7 2618 18326
168	869960 15308 975 208432 1.254438109781 38.454433153037 373 0.099989742163 0.100002907207 37.299997931081 3.7299995971215
167	885268 15322 1068 208531 1.254918204563 38.454848218752 373 0.099898897518 0.100093898531 37.299945902014 3.729989807868
166	900590 10496 975 208432 1.254438109781 38.454433153037 373 7 7 2611 18277
165	911086 10508 1068 208531 1.254918204563 38.454848218752 373 7 7 2611 18277
164	921594 565 5109 205887 2 38 37 0 0 0 0
163	922159 788 5109 205887 2 38 37 0.022969 0.02625 0.967969 0.025333824961
162	922947 565 5109 205887 2 38 37 7 7 259 1813
88	923512 11649 236 208599 1.11 38.46 375 0 48.564002089677 16730.733563274 785606.04359218
89	935161 12607 236 208599 1.11 38.46 375 -9.3223063708363 0.05212998141414 -491.70774434015 3781.6515867843
90	947768 6462 236 208599 1.11 38.46 375 4 4 1500 6000
91	954230 11660 236 208599 1.11 38.46 375 40.638173558192 52.069289517754 16157.970652176 699456.52195831
92	965890 11674 236 208599 1.11 38.46 375 194.60653190613 1803.2697403927 367691.97802026 439244980.75533
93	977564 7962 236 208599 1.11 38.46 375 36.55 36.55 13706.25 500963.4375
94	985526 12153 236 208599 1.11 38.46 375 -1.2930774979573 2.4999999999999 103.77050494341 445.81937565308
95	997679 12108 236 208599 1.11 38.46 375 -1.4973582532855 5.3689598157108 143.40450529973 963.41368202208
96	1009787 528 5106 205884 2 38 37 4 4 148 592
97	1010315 751 5106 205884 2 38 37 0.022969 0.02625 0.967969 0.025333824961
98	1011066 528 5106 205884 2 38 37 0 0 0 0
99	1011594 10126 1050 208513 1.254917680868 38.454847536783 373 4 4 1492 5968
100	1021720 10473 1246 208147 1.303556077389 38.403561200937 372 4 4 1488 5952
101	1032193 15326 1050 208513 1.254917680868 38.454847536783 373 0.099898897531 0.100093898542 37.29994574374 3.7299897762134
102	1047519 15278 1246 208147 1.303556077389 38.403561200937 372 0.099989748627 0.100002906932 37.200008011373 3.7200016130768
