version 2
run SinusoidalPosInjectionAttack-38-20171201-15:53:20-39233
attr CACCSpacing 20
attr attackAcc -30
attr attackPos 3
attr attackSpeed 150
attr attackStart 30
attr attacker 2
attr beaconInterval 0.1
attr configname SinusoidalPosInjectionAttack
attr controller 3
attr datetime 20171201-15:53:20
attr experiment SinusoidalPosInjectionAttack
attr fakeAcc "(2 == 4)"
attr fakePos "(2 == 2)"
attr fakeSpeed "(2 == 3)"
attr inifile omnetpp_38.ini
attr iterationvars "$attacker=2, $attackSpeed=150, $attackPos=3, $attackAcc=-30, $leaderSpeed=100, $controller=3, $CACCSpacing=20, $sController=\"CONSENSUS\", $attackStart=30, $0=15, $1=0.8, $nCars=8, $platoonSize=8, $nLanes=1, $beaconInterval=0.1, $priority=2, $packetSize=200, $ploegH=0.5, $leaderHeadway=1.2, $fakeSpeed=(2 == 3), $fakeAcc=(2 == 4), $fakePos=(2 == 2)"
attr iterationvarsf attacker=2,attackSpeed=150,attackPos=3,attackAcc=-30,leaderSpeed=100,controller=3,CACCSpacing=20,sController=CONSENSUS,attackStart=30,15,0.8,nCars=8,platoonSize=8,nLanes=1,beaconInterval=0.1,priority=2,packetSize=200,ploegH=0.5,leaderHeadway=1.2,fakeSpeed=(2_==_3),fakeAcc=(2_==_4),fakePos=(2_==_2)-
attr leaderHeadway 1.2
attr leaderSpeed 100
attr measurement "$attacker=2, $attackSpeed=150, $attackPos=3, $attackAcc=-30, $leaderSpeed=100, $controller=3, $CACCSpacing=20, $sController=\"CONSENSUS\", $attackStart=30, $0=15, $1=0.8, $nCars=8, $platoonSize=8, $nLanes=1, $beaconInterval=0.1, $priority=2, $packetSize=200, $ploegH=0.5, $leaderHeadway=1.2, $fakeSpeed=(2 == 3), $fakeAcc=(2 == 4), $fakePos=(2 == 2)"
attr nCars 8
attr nLanes 1
attr network scenario
attr packetSize 200
attr platoonSize 8
attr ploegH 0.5
attr priority 2
attr processid 39233
attr repetition 3
attr replication #3
attr resultdir results
attr runnumber 38
attr sController "\"CONSENSUS\""
attr seedset 3
param **.coreDebug false
param **.debug false
param **.headway 0.1s
param **.numberOfCars 8
param **.numberOfCarsPerPlatoon 8
param **.numberOfLanes 1
param **.numericController 3
param **.traffic.nCars 8
param **.traffic.nLanes 1
param **.traffic.platoonInsertDistance 15m
param **.traffic.platoonInsertHeadway 0.8s
param **.traffic.platoonInsertSpeed 100kmph
param **.traffic.platoonInsertTime "1 s"
param **.traffic.platoonLeaderHeadway 1.2s
param **.traffic.platoonSize 8
param **.traffic.platooningVType "\"vtypeauto\""
param **.traffic_type "\"PlatoonsTrafficManager\""
param *.**.nic.mac1609_4.bitrate 6Mbps
param *.**.nic.mac1609_4.txPower 100mW
param *.**.nic.mac1609_4.useServiceChannel false
param *.**.nic.phy80211p.analogueModels "xmldoc(\"config.xml\")"
param *.**.nic.phy80211p.decider "xmldoc(\"config.xml\")"
param *.**.nic.phy80211p.maxTXPower 100mW
param *.**.nic.phy80211p.sensitivity -94dBm
param *.**.nic.phy80211p.thermalNoise -95dBm
param *.**.nic.phy80211p.usePropagationDelay true
param *.**.nic.phy80211p.useThermalNoise true
param *.annotations.draw false
param *.connectionManager.alpha 2.0
param *.connectionManager.carrierFrequency "5.890e9 Hz"
param *.connectionManager.pMax 100mW
param *.connectionManager.sat -94dBm
param *.connectionManager.sendDirect true
param *.manager.autoShutdown true
param *.manager.commandLine "\"sumo --remote-port $port --seed $seed --configuration-file $configFile\""
param *.manager.configFile "\"./sumocfg/freeway.sumo.cfg\""
param *.manager.host "\"localhost\""
param *.manager.margin 25
param *.manager.moduleDisplayString "\"\""
param *.manager.moduleName "\"node\""
param *.manager.moduleType "\"Car\""
param *.manager.updateInterval 0.01s
param *.node[*].appl.attackStart 30s
param *.node[*].appl.attackerType 2
param *.node[*].appl.simulationDuration "60 s"
param *.node[*].appl_type "\"SimplePlatooningApp\""
param *.node[*].helper.nCars 8
param *.node[*].helper.nLanes 1
param *.node[*].helper.platoonSize 8
param *.node[*].helper_type "\"PositionHelper\""
param *.node[*].mobility.x 0
param *.node[*].mobility.y 0
param *.node[*].mobility.z 1.895
param *.node[*].prot.attackStart 30s
param *.node[*].prot.attackerType 2
param *.node[*].prot.attackingNode 3
param *.node[*].prot.beaconingInterval 0.1s
param *.node[*].prot.fakeAcc "(2 == 4)"
param *.node[*].prot.fakePos "(2 == 2)"
param *.node[*].prot.fakeSpeed "(2 == 3)"
param *.node[*].prot.maliciousAcc "-30 mpss"
param *.node[*].prot.maliciousSpeed 150kmph
param *.node[*].prot.packetSize 200
param *.node[*].prot.priority 2
param *.node[*].prot.shiftX "3 m"
param *.node[*].prot.useControllerAcceleration true
param *.node[*].protocol_type "\"SimplePlatooningBeaconing\""
param *.node[*].scenario.accHeadway 0.1s
param *.node[*].scenario.caccC1 0.5
param *.node[*].scenario.caccOmegaN "0.2 Hz"
param *.node[*].scenario.caccSpacing 20m
param *.node[*].scenario.caccXi 1
param *.node[*].scenario.controller "\"CONSENSUS\""
param *.node[*].scenario.engineTau "0.5 s"
param *.node[*].scenario.leaderHeadway 1.2s
param *.node[*].scenario.leaderSpeed 100kmph
param *.node[*].scenario.ploegH 0.5s
param *.node[*].scenario.ploegKd 0.7
param *.node[*].scenario.ploegKp 0.2
param *.node[*].scenario.useRealisticEngine false
param *.node[*].scenario_type "\"SinusoidalScenario\""
param *.node[*].unicast.packetLossRate 0
param *.obstacles.debug false
param *.playgroundSizeX 65000m
param *.playgroundSizeY 25000m
param *.playgroundSizeZ 50m
param *.world.use2D false
param *.world.useTorus false

vector 0  scenario.node[0].appl  distance  ETV
vector 1  scenario.node[0].appl  relativeSpeed  ETV
vector 2  scenario.node[0].appl  nodeId  ETV
vector 6  scenario.node[0].appl  acceleration  ETV
vector 7  scenario.node[0].appl  controllerAcceleration  ETV
vector 3  scenario.node[0].appl  speed  ETV
vector 4  scenario.node[0].appl  posx  ETV
vector 5  scenario.node[0].appl  posy  ETV
vector 22  scenario.node[1].appl  distance  ETV
vector 23  scenario.node[1].appl  relativeSpeed  ETV
vector 24  scenario.node[1].appl  nodeId  ETV
vector 28  scenario.node[1].appl  acceleration  ETV
vector 29  scenario.node[1].appl  controllerAcceleration  ETV
vector 25  scenario.node[1].appl  speed  ETV
vector 26  scenario.node[1].appl  posx  ETV
vector 27  scenario.node[1].appl  posy  ETV
vector 44  scenario.node[2].appl  distance  ETV
vector 45  scenario.node[2].appl  relativeSpeed  ETV
vector 46  scenario.node[2].appl  nodeId  ETV
vector 50  scenario.node[2].appl  acceleration  ETV
vector 51  scenario.node[2].appl  controllerAcceleration  ETV
vector 47  scenario.node[2].appl  speed  ETV
vector 48  scenario.node[2].appl  posx  ETV
vector 49  scenario.node[2].appl  posy  ETV
vector 66  scenario.node[3].appl  distance  ETV
vector 67  scenario.node[3].appl  relativeSpeed  ETV
vector 68  scenario.node[3].appl  nodeId  ETV
vector 72  scenario.node[3].appl  acceleration  ETV
vector 73  scenario.node[3].appl  controllerAcceleration  ETV
vector 69  scenario.node[3].appl  speed  ETV
vector 70  scenario.node[3].appl  posx  ETV
vector 71  scenario.node[3].appl  posy  ETV
vector 88  scenario.node[4].appl  distance  ETV
vector 89  scenario.node[4].appl  relativeSpeed  ETV
vector 90  scenario.node[4].appl  nodeId  ETV
vector 94  scenario.node[4].appl  acceleration  ETV
vector 95  scenario.node[4].appl  controllerAcceleration  ETV
vector 91  scenario.node[4].appl  speed  ETV
vector 92  scenario.node[4].appl  posx  ETV
vector 93  scenario.node[4].appl  posy  ETV
vector 110  scenario.node[5].appl  distance  ETV
vector 111  scenario.node[5].appl  relativeSpeed  ETV
vector 112  scenario.node[5].appl  nodeId  ETV
vector 116  scenario.node[5].appl  acceleration  ETV
vector 117  scenario.node[5].appl  controllerAcceleration  ETV
vector 113  scenario.node[5].appl  speed  ETV
vector 114  scenario.node[5].appl  posx  ETV
vector 115  scenario.node[5].appl  posy  ETV
vector 132  scenario.node[6].appl  distance  ETV
vector 133  scenario.node[6].appl  relativeSpeed  ETV
vector 134  scenario.node[6].appl  nodeId  ETV
vector 138  scenario.node[6].appl  acceleration  ETV
vector 139  scenario.node[6].appl  controllerAcceleration  ETV
vector 135  scenario.node[6].appl  speed  ETV
vector 136  scenario.node[6].appl  posx  ETV
vector 137  scenario.node[6].appl  posy  ETV
vector 154  scenario.node[7].appl  distance  ETV
vector 155  scenario.node[7].appl  relativeSpeed  ETV
vector 156  scenario.node[7].appl  nodeId  ETV
vector 160  scenario.node[7].appl  acceleration  ETV
vector 161  scenario.node[7].appl  controllerAcceleration  ETV
vector 157  scenario.node[7].appl  speed  ETV
vector 158  scenario.node[7].appl  posx  ETV
vector 159  scenario.node[7].appl  posy  ETV
vector 35  scenario.node[1].prot  leaderDelay  ETV
vector 33  scenario.node[1].prot  leaderDelayId  ETV
vector 36  scenario.node[1].prot  frontDelay  ETV
vector 34  scenario.node[1].prot  frontDelayId  ETV
vector 57  scenario.node[2].prot  leaderDelay  ETV
vector 55  scenario.node[2].prot  leaderDelayId  ETV
vector 79  scenario.node[3].prot  leaderDelay  ETV
vector 77  scenario.node[3].prot  leaderDelayId  ETV
vector 101  scenario.node[4].prot  leaderDelay  ETV
vector 99  scenario.node[4].prot  leaderDelayId  ETV
vector 123  scenario.node[5].prot  leaderDelay  ETV
vector 121  scenario.node[5].prot  leaderDelayId  ETV
vector 145  scenario.node[6].prot  leaderDelay  ETV
vector 143  scenario.node[6].prot  leaderDelayId  ETV
vector 167  scenario.node[7].prot  leaderDelay  ETV
vector 165  scenario.node[7].prot  leaderDelayId  ETV
vector 168  scenario.node[7].prot  frontDelay  ETV
vector 166  scenario.node[7].prot  frontDelayId  ETV
vector 58  scenario.node[2].prot  frontDelay  ETV
vector 56  scenario.node[2].prot  frontDelayId  ETV
vector 124  scenario.node[5].prot  frontDelay  ETV
vector 122  scenario.node[5].prot  frontDelayId  ETV
vector 80  scenario.node[3].prot  frontDelay  ETV
vector 78  scenario.node[3].prot  frontDelayId  ETV
vector 146  scenario.node[6].prot  frontDelay  ETV
vector 144  scenario.node[6].prot  frontDelayId  ETV
vector 102  scenario.node[4].prot  frontDelay  ETV
vector 100  scenario.node[4].prot  frontDelayId  ETV
vector 8  scenario.node[0].prot  nodeId  ETV
vector 9  scenario.node[0].prot  busyTime  ETV
vector 10  scenario.node[0].prot  collisions  ETV
vector 30  scenario.node[1].prot  nodeId  ETV
vector 31  scenario.node[1].prot  busyTime  ETV
vector 32  scenario.node[1].prot  collisions  ETV
vector 52  scenario.node[2].prot  nodeId  ETV
vector 53  scenario.node[2].prot  busyTime  ETV
vector 54  scenario.node[2].prot  collisions  ETV
vector 74  scenario.node[3].prot  nodeId  ETV
vector 75  scenario.node[3].prot  busyTime  ETV
vector 76  scenario.node[3].prot  collisions  ETV
vector 96  scenario.node[4].prot  nodeId  ETV
vector 97  scenario.node[4].prot  busyTime  ETV
vector 98  scenario.node[4].prot  collisions  ETV
vector 118  scenario.node[5].prot  nodeId  ETV
vector 119  scenario.node[5].prot  busyTime  ETV
vector 120  scenario.node[5].prot  collisions  ETV
vector 140  scenario.node[6].prot  nodeId  ETV
vector 141  scenario.node[6].prot  busyTime  ETV
vector 142  scenario.node[6].prot  collisions  ETV
vector 162  scenario.node[7].prot  nodeId  ETV
vector 163  scenario.node[7].prot  busyTime  ETV
vector 164  scenario.node[7].prot  collisions  ETV
7	232	1.11	-8.430731206488e-07
7	788	1.21	-8.247038785214e-07
7	1344	1.31	-7.948429328053e-07
7	1900	1.41	-7.5609037608615e-07
7	2456	1.51	-7.1073863239235e-07
7	3012	1.61	-6.6078666094427e-07
7	3568	1.71	-6.079568990458e-07
7	4124	1.81	-5.5371389606762e-07
7	4680	1.91	-4.9928438983216e-07
7	5244	2.01	-4.4567811841034e-07
7	5800	2.11	-3.9370868165634e-07
7	6356	2.21	-3.4401411852514e-07
7	6912	2.31	-2.9707706872273e-07
7	7468	2.41	-2.5324398578164e-07
7	8024	2.51	-2.1274344064182e-07
7	8580	2.61	-1.7570315336002e-07
7	9136	2.71	-1.4216582755466e-07
7	9692	2.81	-1.1210364547765e-07
7	10248	2.91	-8.5431519636359e-08
7	10812	3.01	-6.2018816748832e-08
7	11368	3.11	-4.1699859565369e-08
7	11924	3.21	-2.4283316690799e-08
7	12480	3.31	-9.5601571103998e-09
7	13036	3.41	2.6894362292751e-09
7	13592	3.51	1.2690140493987e-08
7	14148	3.61	2.0666576006079e-08
7	14704	3.71	2.6839355626862e-08
7	15260	3.81	3.1421798496467e-08
7	15816	3.91	3.4617407607129e-08
7	16380	4.01	3.6617997523081e-08
7	16936	4.11	3.7602347902066e-08
7	17492	4.21	3.7735404134764e-08
7	18048	4.31	3.7167730226884e-08
7	18604	4.41	3.6035434192172e-08
7	19160	4.51	3.446024621212e-08
7	19716	4.61	3.2549973383311e-08
7	20272	4.71	3.0399071704323e-08
7	20828	4.81	2.8089345960325e-08
7	21384	4.91	2.5690727767369e-08
7	21949	5.01	2.326218861981e-08
7	22506	5.11	0.34814789186464
7	23063	5.21	0.68726937161622
7	23620	5.31	1.0064706311115
7	24177	5.41	1.2963311698934
7	24734	5.51	1.5
7	25291	5.61	1.5
7	25848	5.71	1.5
7	26405	5.81	1.5
7	26962	5.91	1.5
7	27527	6.01	1.5
7	28084	6.11	1.5
7	28641	6.21	1.5
7	29198	6.31	1.5
7	29755	6.41	1.5
7	30312	6.51	1.4919234148491
7	30869	6.61	1.226499329248
7	31426	6.71	0.92305384082895
7	31983	6.81	0.58908102066068
7	32540	6.91	0.2323562172788
7	33105	7.01	-0.13919559696193
7	33662	7.11	-0.51762846464532
7	34219	7.21	-0.89509993840359
7	34776	7.31	-1.2639902875456
7	35333	7.41	-1.5
7	35890	7.51	-1.5
7	36447	7.61	-1.5
7	37004	7.71	-1.5
7	37561	7.81	-1.5
7	38118	7.91	-1.5
7	38683	8.01	-1.5
7	39240	8.11	-1.5
7	39797	8.21	-1.5
7	40354	8.31	-1.5
7	40911	8.41	-1.5
7	41468	8.51	-1.5
7	42025	8.61	-1.5
7	42582	8.71	-1.5
7	43139	8.81	-1.5
7	43696	8.91	-1.5
7	44261	9.01	-1.5
7	44818	9.11	-1.5
7	45375	9.21	-1.5
7	45932	9.31	-1.5
7	46489	9.41	-1.5
7	47046	9.51	-1.1784535904302
7	47603	9.61	-0.73985166419522
7	48160	9.71	-0.29046662059022
7	48717	9.81	0.15868205669937
7	49274	9.91	0.59737147691163
7	49839	10.01	1.0162504341895
7	50396	10.11	1.4069035498921
7	50953	10.21	1.5
7	51510	10.31	1.5
7	52067	10.41	1.5
7	52624	10.51	1.5
7	53181	10.61	1.5
7	53738	10.71	1.5
7	54295	10.81	1.5
7	54852	10.91	1.5
7	55417	11.01	1.5
7	55974	11.11	1.5
7	56531	11.21	1.5
7	57088	11.31	1.5
7	57645	11.41	1.5
7	58202	11.51	1.5
7	58759	11.61	1.5
7	59316	11.71	1.5
7	59873	11.81	1.5
7	60430	11.91	1.142056952341
7	60995	12.01	0.73271074174567
7	61552	12.11	0.30763491703603
7	62109	12.21	-0.1229018340005
7	62666	12.31	-0.54917422864573
7	63223	12.41	-0.96209331715876
7	63780	12.51	-1.353290027524
7	64337	12.61	-1.5
7	64894	12.71	-1.5
7	65451	12.81	-1.5
7	66008	12.91	-1.5
7	66573	13.01	-1.5
7	67130	13.11	-1.5
7	67687	13.21	-1.5
7	68244	13.31	-1.5
7	68801	13.41	-1.5
7	69358	13.51	-1.5
7	69915	13.61	-1.5
7	70472	13.71	-1.5
7	71029	13.81	-1.5
7	71586	13.91	-1.5
7	72151	14.01	-1.5
7	72708	14.11	-1.5
7	73265	14.21	-1.5
7	73822	14.31	-1.5
7	74379	14.41	-1.3008305793136
7	74936	14.51	-0.8883573602082
7	75493	14.61	-0.45792464374534
7	76050	14.71	-0.020297800477731
7	76607	14.81	0.41435934757689
7	77164	14.91	0.83657487484984
7	77729	15.01	1.2376491838973
7	78286	15.11	1.5
7	78843	15.21	1.5
7	79400	15.31	1.5
7	79957	15.41	1.5
7	80514	15.51	1.5
7	81071	15.61	1.5
7	81628	15.71	1.5
7	82185	15.81	1.5
7	82742	15.91	1.5
7	83307	16.01	1.5
7	83864	16.11	1.5
7	84421	16.21	1.5
7	84978	16.31	1.5
7	85535	16.41	1.5
7	86092	16.51	1.5
7	86649	16.61	1.5
7	87206	16.71	1.5
7	87763	16.81	1.5
7	88320	16.91	1.2451238477401
7	88885	17.01	0.83347870135556
7	89442	17.11	0.40470958877082
7	89999	17.21	-0.03059806221717
7	90556	17.31	-0.46243980386486
7	91113	17.41	-0.8814833530446
7	91670	17.51	-1.2791500631707
7	92227	17.61	-1.5
7	92784	17.71	-1.5
7	93341	17.81	-1.5
7	93898	17.91	-1.5
7	94463	18.01	-1.5
7	95020	18.11	-1.5
7	95577	18.21	-1.5
7	96134	18.31	-1.5
7	96691	18.41	-1.5
7	97248	18.51	-1.5
7	97805	18.61	-1.5
7	98362	18.71	-1.5
7	98919	18.81	-1.5
7	99476	18.91	-1.5
7	100041	19.01	-1.5
7	100598	19.11	-1.5
7	101155	19.21	-1.5
7	101712	19.31	-1.5
7	102269	19.41	-1.2657245815118
7	102826	19.51	-0.85377693481412
7	103383	19.61	-0.42439560037995
7	103940	19.71	0.011767371269134
7	104497	19.81	0.44464851836491
7	105054	19.91	0.86486384400621
7	105619	20.01	1.2637899041136
7	106176	20.11	1.5
7	106733	20.21	1.5
7	107290	20.31	1.5
7	107847	20.41	1.5
7	108404	20.51	1.5
7	108961	20.61	1.5
7	109518	20.71	1.5
7	110075	20.81	1.5
7	110632	20.91	1.5
7	111197	21.01	1.5
7	111754	21.11	1.5
7	112311	21.21	1.5
7	112868	21.31	1.5
7	113425	21.41	1.5
7	113982	21.51	1.5
7	114539	21.61	1.5
7	115096	21.71	1.5
7	115653	21.81	1.5
7	116210	21.91	1.258091551777
7	116775	22.01	0.8462549163489
7	117332	22.11	0.41709956367568
7	117889	22.21	-0.018747163542116
7	118446	22.31	-0.45124369149361
7	119003	22.41	-0.87102520538537
7	119560	22.51	-1.2694848794591
7	120117	22.61	-1.5
7	120674	22.71	-1.5
7	121231	22.81	-1.5
7	121788	22.91	-1.5
7	122353	23.01	-1.5
7	122910	23.11	-1.5
7	123467	23.21	-1.5
7	124024	23.31	-1.5
7	124581	23.41	-1.5
7	125138	23.51	-1.5
7	125695	23.61	-1.5
7	126252	23.71	-1.5
7	126809	23.81	-1.5
7	127366	23.91	-1.5
7	127931	24.01	-1.5
7	128488	24.11	-1.5
7	129045	24.21	-1.5
7	129602	24.31	-1.5
7	130159	24.41	-1.2609239651112
7	130716	24.51	-0.8490461568448
7	131273	24.61	-0.41980696481052
7	131830	24.71	0.016157099446737
7	132387	24.81	0.44879633966076
7	132944	24.91	0.86873882266934
7	133509	25.01	1.26737155572
7	134066	25.11	1.5
7	134623	25.21	1.5
7	135180	25.31	1.5
7	135737	25.41	1.5
7	136294	25.51	1.5
7	136851	25.61	1.5
7	137408	25.71	1.5
7	137965	25.81	1.5
7	138522	25.91	1.5
7	139087	26.01	1.5
7	139644	26.11	1.5
7	140201	26.21	1.5
7	140758	26.31	1.5
7	141315	26.41	1.5
7	141872	26.51	1.5
7	142429	26.61	1.5
7	142986	26.71	1.5
7	143543	26.81	1.5
7	144100	26.91	1.2598728518634
7	144665	27.01	0.84801032251441
7	145222	27.11	0.41880224309152
7	145779	27.21	-0.017118277441824
7	146336	27.31	-0.44970455708397
7	146893	27.41	-0.86958730431876
7	147450	27.51	-1.2681558149826
7	148007	27.61	-1.5
7	148564	27.71	-1.5
7	149121	27.81	-1.5
7	149678	27.91	-1.5
7	150243	28.01	-1.5
7	150800	28.11	-1.5
7	151357	28.21	-1.5
7	151914	28.31	-1.5
7	152471	28.41	-1.5
7	153028	28.51	-1.5
7	153585	28.61	-1.5
7	154142	28.71	-1.5
7	154699	28.81	-1.5
7	155256	28.91	-1.5
7	155821	29.01	-1.5
7	156378	29.11	-1.5
7	156935	29.21	-1.5
7	157492	29.31	-1.5
7	158049	29.41	-1.2602629232513
7	158606	29.51	-0.84839472385599
7	159163	29.61	-0.41917509845245
7	159720	29.71	0.016761581287305
7	160277	29.81	0.44936751475852
7	160834	29.91	0.86927243012183
7	161399	30.01	1.267864773911
7	161956	30.11	1.5
7	162513	30.21	1.5
7	163070	30.31	1.5
7	163627	30.41	1.5
7	164184	30.51	1.5
7	164741	30.61	1.5
7	165298	30.71	1.5
7	165855	30.81	1.5
7	166412	30.91	1.5
7	166977	31.01	1.5
7	167534	31.11	1.5
7	168091	31.21	1.5
7	168648	31.31	1.5
7	169205	31.41	1.5
7	169762	31.51	1.5
7	170319	31.61	1.5
7	170876	31.71	1.5
7	171433	31.81	1.5
7	171990	31.91	1.2601181665204
7	172555	32.01	0.8482520712972
7	173112	32.11	0.41903673064365
7	173669	32.21	-0.016893952363397
7	174226	32.31	-0.44949259223633
7	174783	32.41	-0.8693892809368
7	175340	32.51	-1.2679727801776
7	175897	32.61	-1.5
7	176454	32.71	-1.5
7	177011	32.81	-1.5
7	177568	32.91	-1.5
7	178133	33.01	-1.5
7	178690	33.11	-1.5
7	179247	33.21	-1.5
7	179804	33.31	-1.5
7	180361	33.41	-1.5
7	180918	33.51	-1.5
7	181475	33.61	-1.5
7	182032	33.71	-1.5
7	182589	33.81	-1.5
7	183146	33.91	-1.5
7	183711	34.01	-1.5
7	184268	34.11	-1.5
7	184825	34.21	-1.5
7	185382	34.31	-1.5
7	185939	34.41	-1.2601718862041
7	186496	34.51	-0.84830501011592
7	187053	34.61	-0.41908807937801
7	187610	34.71	0.016844829035612
7	188167	34.81	0.44944617558609
7	188724	34.91	0.86934591722741
7	189289	35.01	1.2679326987083
7	189846	35.11	1.5
7	190403	35.21	1.5
7	190960	35.31	1.5
7	191517	35.41	1.5
7	192074	35.51	1.5
7	192631	35.61	1.5
7	193188	35.71	1.5
7	193745	35.81	1.5
7	194302	35.91	1.5
7	194867	36.01	1.5
7	195424	36.11	1.5
7	195981	36.21	1.5
7	196538	36.31	1.5
7	197095	36.41	1.5
7	197652	36.51	1.5
7	198209	36.61	1.5
7	198766	36.71	1.5
7	199323	36.81	1.5
7	199880	36.91	1.2601519506571
7	200445	37.01	0.84828536435039
7	201002	37.11	0.41906902369788
7	201559	37.21	-0.016863058860221
7	202116	37.31	-0.44946340095391
7	202673	37.41	-0.86936200963904
7	203230	37.51	-1.2679475730701
7	203787	37.61	-1.5
7	204344	37.71	-1.5
7	204901	37.81	-1.5
7	205458	37.91	-1.5
7	206023	38.01	-1.5
7	206580	38.11	-1.5
7	207137	38.21	-1.5
7	207694	38.31	-1.5
7	208251	38.41	-1.5
7	208808	38.51	-1.5
7	209365	38.61	-1.5
7	209922	38.71	-1.5
7	210479	38.81	-1.5
7	211036	38.91	-1.5
7	211601	39.01	-1.5
7	212158	39.11	-1.5
7	212715	39.21	-1.5
7	213272	39.31	-1.5
7	213829	39.41	-1.2601593488036
7	214386	39.51	-0.84829265495814
7	214943	39.61	-0.41907609532306
7	215500	39.71	0.01685629371266
7	216057	39.81	0.44945700856354
7	216614	39.91	0.86935603769241
7	217179	40.01	1.2679420531458
7	217736	40.11	1.5
7	218293	40.21	1.5
7	218850	40.31	1.5
7	219407	40.41	1.5
7	219964	40.51	1.5
7	220521	40.61	1.5
7	221078	40.71	1.5
7	221635	40.81	1.5
7	222192	40.91	1.5
7	222757	41.01	1.5
7	223314	41.11	1.5
7	223871	41.21	1.5
7	224428	41.31	1.5
7	224985	41.41	1.5
7	225542	41.51	1.5
7	226099	41.61	1.5
7	226656	41.71	1.5
7	227213	41.81	1.5
7	227770	41.91	1.2601566033284
7	228335	42.01	0.84828994939093
7	228892	42.11	0.41907347102099
7	229449	42.21	-0.016858804279881
7	230006	42.31	-0.44945938079935
7	230563	42.41	-0.86935825390018
7	231120	42.51	-1.2679441016066
7	231677	42.61	-1.5
7	232234	42.71	-1.5
7	232791	42.81	-1.5
7	233348	42.91	-1.5
7	233913	43.01	-1.5
7	234470	43.11	-1.5
7	235027	43.21	-1.5
7	235584	43.31	-1.5
7	236141	43.41	-1.5
7	236698	43.51	-1.5
7	237255	43.61	-1.5
7	237812	43.71	-1.5
7	238369	43.81	-1.5
7	238926	43.91	-1.5
7	239491	44.01	-1.5
7	240048	44.11	-1.5
7	240605	44.21	-1.5
7	241162	44.31	-1.5
7	241719	44.41	-1.2601576221815
7	242276	44.51	-0.84829095343405
7	242833	44.61	-0.41907444490634
7	243390	44.71	0.016857872601886
7	243947	44.81	0.44945850045656
7	244504	44.91	0.86935743145978
7	245069	45.01	1.2679433414175
7	245626	45.11	1.5
7	246183	45.21	1.5
7	246740	45.31	1.5
7	247297	45.41	1.5
7	247854	45.51	1.5
7	248411	45.61	1.5
7	248968	45.71	1.5
7	249525	45.81	1.5
7	250082	45.91	1.5
7	250647	46.01	1.5
7	251204	46.11	1.5
7	251761	46.21	1.5
7	252318	46.31	1.5
7	252875	46.41	1.5
7	253432	46.51	1.5
7	253989	46.61	1.5
7	254546	46.71	1.5
7	255103	46.81	1.5
7	255660	46.91	1.2601572440828
7	256225	47.01	0.84829058083134
7	256782	47.11	0.41907408349529
7	257339	47.21	-0.016858218349689
7	257896	47.31	-0.44945882715379
7	258453	47.41	-0.86935773666939
6	232	1.11	-1.2391545567425e-07
6	788	1.21	-2.514333630188e-07
6	1344	1.31	-3.5153284727585e-07
6	1900	1.41	-4.2734420446777e-07
6	2456	1.51	-4.8187125401e-07
6	3012	1.61	-5.1795971955926e-07
6	3568	1.71	-5.3827413637464e-07
6	4124	1.81	-5.4528506154838e-07
6	4680	1.91	-5.4125663950799e-07
6	5244	2.01	-5.2824375984528e-07
6	5800	2.11	-5.080941889446e-07
6	6356	2.21	-4.8245141215375e-07
6	6912	2.31	-4.5276244975412e-07
6	7468	2.41	-4.202860282021e-07
6	8024	2.51	-3.8610643571246e-07
6	8580	2.61	-3.5114133822844e-07
6	9136	2.71	-3.1616025353287e-07
6	9692	2.81	-2.8179307776099e-07
6	10248	2.91	-2.4854536206931e-07
6	10812	3.01	-2.1681287876163e-07
6	11368	3.11	-1.8689298997288e-07
6	11924	3.21	-1.5899530581009e-07
6	12480	3.31	-1.3325838210676e-07
6	13036	3.41	-1.0975469422192e-07
6	13592	3.51	-8.8505203166278e-08
6	14148	3.61	-6.948575048682e-08
6	14704	3.71	-5.263665059374e-08
6	15260	3.81	-3.7870506730542e-08
6	15816	3.91	-2.5077895315917e-08
6	16380	4.01	-1.4133405557004e-08
6	16936	4.11	-4.9016790626411e-09
6	17492	4.21	2.7593927143243e-09
6	18048	4.31	8.9940499492513e-09
6	18604	4.41	1.3947598631603e-08
6	19160	4.51	1.7761081494427e-08
6	19716	4.61	2.0570567471623e-08
6	20272	4.71	2.2507151697937e-08
6	20828	4.81	2.3691626438449e-08
6	21384	4.91	2.4239099616352e-08
6	21949	5.01	2.4253310471067e-08
6	22506	5.11	0.0068264526728257
6	23063	5.21	0.074594836732089
6	23620	5.31	0.19005134681258
6	24177	5.41	0.34050272642077
6	24734	5.51	0.51301638947834
6	25291	5.61	0.6902545856434
6	25848	5.71	0.83572672600098
6	26405	5.81	0.95506454902292
6	26962	5.91	1.0529631292492
6	27527	6.01	1.133274063098
6	28084	6.11	1.1991570011418
6	28641	6.21	1.2532039573571
6	29198	6.31	1.2975412860019
6	29755	6.41	1.333913338177
6	30312	6.51	1.3635927249268
6	30869	6.61	1.3702053615898
6	31426	6.71	1.3272611926745
6	31983	6.81	1.2373810921854
6	32540	6.91	1.1040433755532
6	33105	7.01	0.93147092012096
6	33662	7.11	0.72451590565734
6	34219	7.21	0.48854318346834
6	34776	7.31	0.2293132962599
6	35333	7.41	-0.044839398398011
6	35890	7.51	-0.30626147443016
6	36447	7.61	-0.52071863005345
6	37004	7.71	-0.69664819306503
6	37561	7.81	-0.84097171097959
6	38118	7.91	-0.95936726353223
6	38683	8.01	-1.0564928537818
6	39240	8.11	-1.1361696666178
6	39797	8.21	-1.2015324045674
6	40354	8.31	-1.2551526155189
6	40911	8.41	-1.2991398644115
6	41468	8.51	-1.3352247292573
6	42025	8.61	-1.3648268867847
6	42582	8.71	-1.3891109663845
6	43139	8.81	-1.4090323697992
6	43696	8.91	-1.4253748592211
6	44261	9.01	-1.4387813926344
6	44818	9.11	-1.4497794195275
6	45375	9.21	-1.4588016321909
6	45932	9.31	-1.4662029890104
6	46489	9.41	-1.4722746794938
6	47046	9.51	-1.4696249146823
6	47603	9.61	-1.3967850639141
6	48160	9.71	-1.2587757641274
6	48717	9.81	-1.0660952217858
6	49274	9.91	-0.82923335017639
6	49839	10.01	-0.55852907832801
6	50396	10.11	-0.26404116068406
6	50953	10.21	0.03943269874469
6	51510	10.31	0.30182609756224
6	52067	10.41	0.51708007617997
6	52624	10.51	0.69366331158065
6	53181	10.61	0.83852306852847
6	53738	10.71	0.95735852386056
6	54295	10.81	1.0548449876072
6	54852	10.91	1.1348178424026
6	55417	11.01	1.2004234378704
6	55974	11.11	1.2542428765748
6	56531	11.21	1.2983935616166
6	57088	11.31	1.3346125010283
6	57645	11.41	1.3643246463978
6	58202	11.51	1.3886989543376
6	58759	11.61	1.4086943764163
6	59316	11.71	1.4250975869238
6	59873	11.81	1.4385539327762
6	60430	11.91	1.4345627372837
6	60995	12.01	1.3623449188774
6	61552	12.11	1.2299875654499
6	62109	12.21	1.0461448397812
6	62666	12.31	0.81967864249357
6	63223	12.41	0.55952045905059
6	63780	12.51	0.27454262949682
6	64337	12.61	-0.02234164487227
6	64894	12.71	-0.28780548057448
6	65451	12.81	-0.50557828687161
6	66008	12.91	-0.68422783827593
6	66573	13.01	-0.83078269404453
6	67130	13.11	-0.95100872081275
6	67687	13.21	-1.0496359374716
6	68244	13.31	-1.1305446069798
6	68801	13.41	-1.1969178964556
6	69358	13.51	-1.2513671116345
6	69915	13.61	-1.2960344327361
6	70472	13.71	-1.3326771936619
6	71029	13.81	-1.3627370202897
6	71586	13.91	-1.3873965479586
6	72151	14.01	-1.4076259495578
6	72708	14.11	-1.4242211047666
6	73265	14.21	-1.4378349121291
6	73822	14.31	-1.4490029758537
6	74379	14.41	-1.4542593951845
6	74936	14.51	-1.4067454390027
6	75493	14.61	-1.2938574955285
6	76050	14.71	-1.1248409052222
6	76607	14.81	-0.90912582142266
6	77164	14.91	-0.65618298375618
6	77729	15.01	-0.37539052553193
6	78286	15.11	-0.078063005083351
6	78843	15.21	0.20543869668366
6	79400	15.31	0.43800883574043
6	79957	15.41	0.62879735391697
6	80514	15.51	0.78531039043881
6	81071	15.61	0.91370559385808
6	81628	15.71	1.0190343806951
6	82185	15.81	1.1054406719047
6	82742	15.91	1.1763239259967
6	83307	16.01	1.2344728829817
6	83864	16.11	1.2821752809831
6	84421	16.21	1.3213078620836
6	84978	16.31	1.3534102084598
6	85535	16.41	1.3797453137308
6	86092	16.51	1.4013492725667
6	86649	16.61	1.4190720434691
6	87206	16.71	1.4336108884482
6	87763	16.81	1.4455378052084
6	88320	16.91	1.4502949065335
6	88885	17.01	1.3935559567532
6	89442	17.11	1.2733368701447
6	89999	17.21	1.098674244054
6	90556	17.31	0.87879676591527
6	91113	17.41	0.62298329276125
6	91670	17.51	0.34043137853565
6	92227	17.61	0.043031849081743
6	92784	17.71	-0.23417644595263
6	93341	17.81	-0.46158379949546
6	93898	17.91	-0.64813703535336
6	94463	18.01	-0.80117566522588
6	95020	18.11	-0.92672064505699
6	95577	18.21	-1.0297112558188
6	96134	18.31	-1.1141994282603
6	96691	18.41	-1.1835091568827
6	97248	18.51	-1.2403672749226
6	97805	18.61	-1.2870107353905
6	98362	18.71	-1.3252746188858
6	98919	18.81	-1.3566643306586
6	99476	18.91	-1.382414827345
6	100041	19.01	-1.4035392035215
6	100598	19.11	-1.4208685496044
6	101155	19.21	-1.4350846492011
6	101712	19.31	-1.4467468023362
6	102269	19.41	-1.4517201941775
6	102826	19.51	-1.3984004323884
6	103383	19.61	-1.280899381009
6	103940	19.71	-1.1083308503771
6	104497	19.81	-0.88999806036796
6	105054	19.91	-0.63525086466818
6	105619	20.01	-0.35335363991322
6	106176	20.11	-0.055983891306965
6	106733	20.21	0.22355126013309
6	107290	20.31	0.45286744637245
6	107847	20.41	0.64098658988812
6	108404	20.51	0.79530980944469
6	108961	20.61	0.92190860023926
6	109518	20.71	1.0257637030335
6	110075	20.81	1.1109610600446
6	110632	20.91	1.1808525670222
6	111197	21.01	1.2381879459468
6	111754	21.11	1.2852229265704
6	112311	21.21	1.32380799296
6	112868	21.31	1.3554611865732
6	113425	21.41	1.3814278301393
6	113982	21.51	1.402729522043
6	114539	21.61	1.4202043287796
6	115096	21.71	1.4345397567766
6	115653	21.81	1.4462998007627
6	116210	21.91	1.4512038299461
6	116775	22.01	1.3966149622046
6	117332	22.11	1.2781048258542
6	117889	22.21	1.104758616826
6	118446	22.31	0.88585193073989
6	119003	22.41	0.63070830476128
6	119560	22.51	0.3485673438103
6	120117	22.61	0.051185654371366
6	120674	22.71	-0.22748748564538
6	121231	22.81	-0.45609652227974
6	121788	22.91	-0.64363555681837
6	122353	23.01	-0.79748288496262
6	122910	23.11	-0.92369127904597
6	123467	23.21	-1.0272261205628
6	124024	23.31	-1.1121607517783
6	124581	23.41	-1.1818367320963
6	125138	23.51	-1.238995304092
6	125695	23.61	-1.2858852414524
6	126252	23.71	-1.3243513218473
6	126809	23.81	-1.355906905502
6	127366	23.91	-1.3817934749046
6	127931	24.01	-1.403029478104
6	128488	24.11	-1.4204503972248
6	129045	24.21	-1.434741618608
6	129602	24.31	-1.4464653977726
6	130159	24.41	-1.4513952146881
6	130716	24.51	-1.3972773206763
6	131273	24.61	-1.2791416668563
6	131830	24.71	-1.1060840673021
6	132387	24.81	-0.88739036841652
6	132944	24.91	-0.63239387292597
6	133509	25.01	-0.35034337810913
6	134066	25.11	-0.052966136909305
6	134623	25.21	0.2260268698226
6	135180	25.31	0.45489830857264
6	135737	25.41	0.64265260424108
6	136294	25.51	0.79667652148672
6	136851	25.61	0.92302978013947
6	137408	25.71	1.026683461059
6	137965	25.81	1.1117155819772
6	138522	25.91	1.1814715378073
6	139087	26.01	1.2386957175785
6	139644	26.11	1.2856394761656
6	140201	26.21	1.3241497087126
6	140758	26.31	1.3557415125099
6	141315	26.41	1.381657795045
6	141872	26.51	1.4029181733619
6	142429	26.61	1.4203590885685
6	142986	26.71	1.4346667137069
6	143543	26.81	1.4464039496644
6	144100	26.91	1.4513241957726
6	144665	27.01	1.3970315218256
6	145222	27.11	1.2787568961965
6	145779	27.21	1.1055921925461
6	146336	27.31	0.88681945319387
6	146893	27.41	0.63176835684509
6	147450	27.51	0.34968428947479
6	148007	27.61	0.052305397195695
6	148564	27.71	-0.22656890652364
6	149121	27.81	-0.45534296745835
6	149678	27.91	-0.64301737940227
6	150243	28.01	-0.79697576417033
6	150800	28.11	-0.92327526336611
6	151357	28.21	-1.0268848428069
6	151914	28.31	-1.1118807851517
6	152471	28.41	-1.1816070619506
6	153028	28.51	-1.2388068945789
6	153585	28.61	-1.2857306800289
6	154142	28.71	-1.3242245276459
6	154699	28.81	-1.3558028900945
6	155256	28.91	-1.3817081460427
6	155821	29.01	-1.4029594787171
6	156378	29.11	-1.4203929733469
6	156935	29.21	-1.4346945110272
6	157492	29.31	-1.4464267531491
6	158049	29.41	-1.4513505510322
6	158606	29.51	-1.3971227384758
6	159163	29.61	-1.2788996857299
6	159720	29.71	-1.1057747287548
6	160277	29.81	-0.88703132157519
6	160834	29.91	-0.63200048778356
6	161399	30.01	-0.34992887929945
6	161956	30.11	-0.052550599747647
6	162513	30.21	0.2263677550264
6	163070	30.31	0.45517795317025
6	163627	30.41	0.64288201021157
6	164184	30.51	0.7968647142846
6	164741	30.61	0.92318416378134
6	165298	30.71	1.0268101094169
6	165855	30.81	1.1118194777417
6	166412	30.91	1.1815567685211
6	166977	31.01	1.2387656364492
6	167534	31.11	1.2856968339921
6	168091	31.21	1.3241967621074
6	168648	31.31	1.3557801126822
6	169205	31.41	1.3816894606308
6	169762	31.51	1.4029441501705
6	170319	31.61	1.4203803985996
6	170876	31.71	1.4346841953547
6	171433	31.81	1.4464182907037
6	171990	31.91	1.451340770512
6	172555	32.01	1.397088887688
6	173112	32.11	1.2788466960817
6	173669	32.21	1.105706988989
6	174226	32.31	0.88695269654693
6	174783	32.41	0.6319143432556
6	175340	32.51	0.34983811123936
6	175897	32.61	0.052459604302157
6	176454	32.71	-0.22644240298604
6	177011	32.81	-0.45523919049693
6	177568	32.91	-0.64293224614822
6	178133	33.01	-0.7969059252499
6	178690	33.11	-0.92321797112582
6	179247	33.21	-1.0268378432144
6	179804	33.31	-1.1118422291158
6	180361	33.41	-1.181575432572
6	180918	33.51	-1.2387809474717
6	181475	33.61	-1.2857093943634
6	182032	33.71	-1.3242070659867
6	182589	33.81	-1.3557885654517
6	183146	33.91	-1.3816963948457
6	183711	34.01	-1.4029498386424
6	184268	34.11	-1.4203850651278
6	184825	34.21	-1.434688023533
6	185382	34.31	-1.4464214311442
6	185939	34.41	-1.4513444000944
6	186496	34.51	-1.3971014498232
6	187053	34.61	-1.2788663607086
6	187610	34.71	-1.1057321274318
6	188167	34.81	-0.88698187454561
6	188724	34.91	-0.63194631176522
6	189289	35.01	-0.34987179555621
6	189846	35.11	-0.052493373001994
6	190403	35.21	0.22641470089013
6	190960	35.31	0.45521646512974
6	191517	35.41	0.64291360343276
6	192074	35.51	0.79689063173021
6	192631	35.61	0.9232054251143
6	193188	35.71	1.0268275511155
6	193745	35.81	1.1118337860104
6	194302	35.91	1.1815685062846
6	194867	36.01	1.2387752655037
6	195424	36.11	1.2857047331707
6	195981	36.21	1.324203242185
6	196538	36.31	1.3557854286034
6	197095	36.41	1.3816938215378
6	197652	36.51	1.4029477276342
6	198209	36.61	1.4203833333653
6	198766	36.71	1.4346866028841
6	199323	36.81	1.4464202657173
6	199880	36.91	1.4513430531448
6	200445	37.01	1.3970967879747
6	201002	37.11	1.2788590631025
6	201559	37.21	1.1057227984747
6	202116	37.31	0.8869710464964
6	202673	37.41	0.63193444814829
6	203230	37.51	0.34985929519813
6	203787	37.61	0.052480841329228
6	204344	37.71	-0.22642498122742
6	204901	37.81	-0.45522489858705
6	205458	37.91	-0.64292052180406
6	206023	38.01	-0.79689630720416
6	206580	38.11	-0.92321008097898
6	207137	38.21	-1.0268313705456
6	207694	38.31	-1.1118369192733
6	208251	38.41	-1.1815710766513
6	208808	38.51	-1.2387773740993
6	209365	38.61	-1.2857064629529
6	209922	38.71	-1.3242046612092
6	210479	38.81	-1.3557865926966
6	211036	38.91	-1.3816947764997
6	211601	39.01	-1.4029485110349
6	212158	39.11	-1.420383976027
6	212715	39.21	-1.4346871300905
6	213272	39.31	-1.4464206982101
6	213829	39.41	-1.4513435530016
6	214386	39.51	-1.3970985180016
6	214943	39.61	-1.2788617712673
6	215500	39.71	-1.1057262604808
6	216057	39.81	-0.88697506482056
6	216614	39.91	-0.63193885077553
6	217179	40.01	-0.34986393412169
6	217736	40.11	-0.052485491873711
6	218293	40.21	0.22642116616005
6	218850	40.31	0.45522176890245
6	219407	40.41	0.64291795437263
6	219964	40.51	0.79689420101552
6	220521	40.61	0.92320835317068
6	221078	40.71	1.0268299531418
6	221635	40.81	1.1118357565078
6	222192	40.91	1.1815701227786
6	222757	41.01	1.2387765915918
6	223314	41.11	1.2857058210248
6	223871	41.21	1.3242041346043
6	224428	41.31	1.3557861606976
6	224985	41.41	1.3816944221094
6	225542	41.51	1.4029482203117
6	226099	41.61	1.420383737533
6	226656	41.71	1.4346869344426
6	227213	41.81	1.4464205377106
6	227770	41.91	1.4513433675031
6	228335	42.01	1.3970978759829
6	228892	42.11	1.2788607662586
6	229449	42.21	1.1057249757194
6	230006	42.31	0.88697357360701
6	230563	42.41	0.6319372169461
6	231120	42.51	0.3498622126024
6	231677	42.61	0.052483766041789
6	232234	42.71	-0.22642258194381
6	232791	42.81	-0.45522293033819
6	233348	42.91	-0.64291890715467
6	233913	43.01	-0.79689498262923
6	234470	43.11	-0.92320899436622
6	235027	43.21	-1.0268304791456
6	235584	43.31	-1.111836188014
6	236141	43.41	-1.1815704767642
6	236698	43.51	-1.2387768819831
6	237255	43.61	-1.2857060592466
6	237812	43.71	-1.3242043300295
6	238369	43.81	-1.3557863210146
6	238926	43.91	-1.3816945536259
6	239491	44.01	-1.4029483282012
6	240048	44.11	-1.4203838260396
6	240605	44.21	-1.4346870070494
6	241162	44.31	-1.4464205972729
6	241719	44.41	-1.4513434363423
6	242276	44.51	-1.3970981142382
6	242833	44.61	-1.2788611392207
6	243390	44.71	-1.1057254524978
6	243947	44.81	-0.88697412700043
6	244504	44.91	-0.63193782326394
6	245069	45.01	-0.34986285146203
6	245626	45.11	-0.052484406502273
6	246183	45.21	0.22642205654293
6	246740	45.31	0.45522249932652
6	247297	45.41	0.64291855357439
6	247854	45.51	0.7968946925704
6	248411	45.61	0.92320875641683
6	248968	45.71	1.0268302839439
6	249525	45.81	1.1118360278807
6	250082	45.91	1.1815703453994
6	250647	46.01	1.2387767742183
6	251204	46.11	1.285705970842
6	251761	46.21	1.3242042575069
6	252318	46.31	1.3557862615201
6	252875	46.41	1.3816945048191
6	253432	46.51	1.4029482881629
6	253989	46.61	1.4203837931944
6	254546	46.71	1.4346869801042
6	255103	46.81	1.4464205751686
6	255660	46.91	1.4513434107954
6	256225	47.01	1.3970980258208
6	256782	47.11	1.2788610008133
6	257339	47.21	1.1057252755645
6	257896	47.31	0.88697392163581
6	258453	47.41	0.63193759825886
5	232	1.11	36.55
5	788	1.21	36.55
5	1344	1.31	36.55
5	1900	1.41	36.55
5	2456	1.51	36.55
5	3012	1.61	36.55
5	3568	1.71	36.55
5	4124	1.81	36.55
5	4680	1.91	36.55
5	5244	2.01	36.55
5	5800	2.11	36.55
5	6356	2.21	36.55
5	6912	2.31	36.55
5	7468	2.41	36.55
5	8024	2.51	36.55
5	8580	2.61	36.55
5	9136	2.71	36.55
5	9692	2.81	36.55
5	10248	2.91	36.55
5	10812	3.01	36.55
5	11368	3.11	36.55
5	11924	3.21	36.55
5	12480	3.31	36.55
5	13036	3.41	36.55
5	13592	3.51	36.55
5	14148	3.61	36.55
5	14704	3.71	36.55
5	15260	3.81	36.55
5	15816	3.91	36.55
5	16380	4.01	36.55
5	16936	4.11	36.55
5	17492	4.21	36.55
5	18048	4.31	36.55
5	18604	4.41	36.55
5	19160	4.51	36.55
5	19716	4.61	36.55
5	20272	4.71	36.55
5	20828	4.81	36.55
5	21384	4.91	36.55
5	21949	5.01	36.55
5	22506	5.11	36.55
5	23063	5.21	36.55
5	23620	5.31	36.55
5	24177	5.41	36.55
5	24734	5.51	36.55
5	25291	5.61	36.55
5	25848	5.71	36.55
5	26405	5.81	36.55
5	26962	5.91	36.55
5	27527	6.01	36.55
5	28084	6.11	36.55
5	28641	6.21	36.55
5	29198	6.31	36.55
5	29755	6.41	36.55
5	30312	6.51	36.55
5	30869	6.61	36.55
5	31426	6.71	36.55
5	31983	6.81	36.55
5	32540	6.91	36.55
5	33105	7.01	36.55
5	33662	7.11	36.55
5	34219	7.21	36.55
5	34776	7.31	36.55
5	35333	7.41	36.55
5	35890	7.51	36.55
5	36447	7.61	36.55
5	37004	7.71	36.55
5	37561	7.81	36.55
5	38118	7.91	36.55
5	38683	8.01	36.55
5	39240	8.11	36.55
5	39797	8.21	36.55
5	40354	8.31	36.55
5	40911	8.41	36.55
5	41468	8.51	36.55
5	42025	8.61	36.55
5	42582	8.71	36.55
5	43139	8.81	36.55
5	43696	8.91	36.55
5	44261	9.01	36.55
5	44818	9.11	36.55
5	45375	9.21	36.55
5	45932	9.31	36.55
5	46489	9.41	36.55
5	47046	9.51	36.55
5	47603	9.61	36.55
5	48160	9.71	36.55
5	48717	9.81	36.55
5	49274	9.91	36.55
5	49839	10.01	36.55
5	50396	10.11	36.55
5	50953	10.21	36.55
5	51510	10.31	36.55
5	52067	10.41	36.55
5	52624	10.51	36.55
5	53181	10.61	36.55
5	53738	10.71	36.55
5	54295	10.81	36.55
5	54852	10.91	36.55
5	55417	11.01	36.55
5	55974	11.11	36.55
5	56531	11.21	36.55
5	57088	11.31	36.55
5	57645	11.41	36.55
5	58202	11.51	36.55
5	58759	11.61	36.55
5	59316	11.71	36.55
5	59873	11.81	36.55
5	60430	11.91	36.55
5	60995	12.01	36.55
5	61552	12.11	36.55
5	62109	12.21	36.55
5	62666	12.31	36.55
5	63223	12.41	36.55
5	63780	12.51	36.55
5	64337	12.61	36.55
5	64894	12.71	36.55
5	65451	12.81	36.55
5	66008	12.91	36.55
5	66573	13.01	36.55
5	67130	13.11	36.55
5	67687	13.21	36.55
5	68244	13.31	36.55
5	68801	13.41	36.55
5	69358	13.51	36.55
5	69915	13.61	36.55
5	70472	13.71	36.55
5	71029	13.81	36.55
5	71586	13.91	36.55
5	72151	14.01	36.55
5	72708	14.11	36.55
5	73265	14.21	36.55
5	73822	14.31	36.55
5	74379	14.41	36.55
5	74936	14.51	36.55
5	75493	14.61	36.55
5	76050	14.71	36.55
5	76607	14.81	36.55
5	77164	14.91	36.55
5	77729	15.01	36.55
5	78286	15.11	36.55
5	78843	15.21	36.55
5	79400	15.31	36.55
5	79957	15.41	36.55
5	80514	15.51	36.55
5	81071	15.61	36.55
5	81628	15.71	36.55
5	82185	15.81	36.55
5	82742	15.91	36.55
5	83307	16.01	36.55
5	83864	16.11	36.55
5	84421	16.21	36.55
5	84978	16.31	36.55
5	85535	16.41	36.55
5	86092	16.51	36.55
5	86649	16.61	36.55
5	87206	16.71	36.55
5	87763	16.81	36.55
5	88320	16.91	36.55
5	88885	17.01	36.55
5	89442	17.11	36.55
5	89999	17.21	36.55
5	90556	17.31	36.55
5	91113	17.41	36.55
5	91670	17.51	36.55
5	92227	17.61	36.55
5	92784	17.71	36.55
5	93341	17.81	36.55
5	93898	17.91	36.55
5	94463	18.01	36.55
5	95020	18.11	36.55
5	95577	18.21	36.55
5	96134	18.31	36.55
5	96691	18.41	36.55
5	97248	18.51	36.55
5	97805	18.61	36.55
5	98362	18.71	36.55
5	98919	18.81	36.55
5	99476	18.91	36.55
5	100041	19.01	36.55
5	100598	19.11	36.55
5	101155	19.21	36.55
5	101712	19.31	36.55
5	102269	19.41	36.55
5	102826	19.51	36.55
5	103383	19.61	36.55
5	103940	19.71	36.55
5	104497	19.81	36.55
5	105054	19.91	36.55
5	105619	20.01	36.55
5	106176	20.11	36.55
5	106733	20.21	36.55
5	107290	20.31	36.55
5	107847	20.41	36.55
5	108404	20.51	36.55
5	108961	20.61	36.55
5	109518	20.71	36.55
5	110075	20.81	36.55
5	110632	20.91	36.55
5	111197	21.01	36.55
5	111754	21.11	36.55
5	112311	21.21	36.55
5	112868	21.31	36.55
5	113425	21.41	36.55
5	113982	21.51	36.55
5	114539	21.61	36.55
5	115096	21.71	36.55
5	115653	21.81	36.55
5	116210	21.91	36.55
5	116775	22.01	36.55
5	117332	22.11	36.55
5	117889	22.21	36.55
5	118446	22.31	36.55
5	119003	22.41	36.55
5	119560	22.51	36.55
5	120117	22.61	36.55
5	120674	22.71	36.55
5	121231	22.81	36.55
5	121788	22.91	36.55
5	122353	23.01	36.55
5	122910	23.11	36.55
5	123467	23.21	36.55
5	124024	23.31	36.55
5	124581	23.41	36.55
5	125138	23.51	36.55
5	125695	23.61	36.55
5	126252	23.71	36.55
5	126809	23.81	36.55
5	127366	23.91	36.55
5	127931	24.01	36.55
5	128488	24.11	36.55
5	129045	24.21	36.55
5	129602	24.31	36.55
5	130159	24.41	36.55
5	130716	24.51	36.55
5	131273	24.61	36.55
5	131830	24.71	36.55
5	132387	24.81	36.55
5	132944	24.91	36.55
5	133509	25.01	36.55
5	134066	25.11	36.55
5	134623	25.21	36.55
5	135180	25.31	36.55
5	135737	25.41	36.55
5	136294	25.51	36.55
5	136851	25.61	36.55
5	137408	25.71	36.55
5	137965	25.81	36.55
5	138522	25.91	36.55
5	139087	26.01	36.55
5	139644	26.11	36.55
5	140201	26.21	36.55
5	140758	26.31	36.55
5	141315	26.41	36.55
5	141872	26.51	36.55
5	142429	26.61	36.55
5	142986	26.71	36.55
5	143543	26.81	36.55
5	144100	26.91	36.55
5	144665	27.01	36.55
5	145222	27.11	36.55
5	145779	27.21	36.55
5	146336	27.31	36.55
5	146893	27.41	36.55
5	147450	27.51	36.55
5	148007	27.61	36.55
5	148564	27.71	36.55
5	149121	27.81	36.55
5	149678	27.91	36.55
5	150243	28.01	36.55
5	150800	28.11	36.55
5	151357	28.21	36.55
5	151914	28.31	36.55
5	152471	28.41	36.55
5	153028	28.51	36.55
5	153585	28.61	36.55
5	154142	28.71	36.55
5	154699	28.81	36.55
5	155256	28.91	36.55
5	155821	29.01	36.55
5	156378	29.11	36.55
5	156935	29.21	36.55
5	157492	29.31	36.55
5	158049	29.41	36.55
5	158606	29.51	36.55
5	159163	29.61	36.55
5	159720	29.71	36.55
5	160277	29.81	36.55
5	160834	29.91	36.55
5	161399	30.01	36.55
5	161956	30.11	36.55
5	162513	30.21	36.55
5	163070	30.31	36.55
5	163627	30.41	36.55
5	164184	30.51	36.55
5	164741	30.61	36.55
5	165298	30.71	36.55
5	165855	30.81	36.55
5	166412	30.91	36.55
5	166977	31.01	36.55
5	167534	31.11	36.55
5	168091	31.21	36.55
5	168648	31.31	36.55
5	169205	31.41	36.55
5	169762	31.51	36.55
5	170319	31.61	36.55
5	170876	31.71	36.55
5	171433	31.81	36.55
5	171990	31.91	36.55
5	172555	32.01	36.55
5	173112	32.11	36.55
5	173669	32.21	36.55
5	174226	32.31	36.55
5	174783	32.41	36.55
5	175340	32.51	36.55
5	175897	32.61	36.55
5	176454	32.71	36.55
5	177011	32.81	36.55
5	177568	32.91	36.55
5	178133	33.01	36.55
5	178690	33.11	36.55
5	179247	33.21	36.55
5	179804	33.31	36.55
5	180361	33.41	36.55
5	180918	33.51	36.55
5	181475	33.61	36.55
5	182032	33.71	36.55
5	182589	33.81	36.55
5	183146	33.91	36.55
5	183711	34.01	36.55
5	184268	34.11	36.55
5	184825	34.21	36.55
5	185382	34.31	36.55
5	185939	34.41	36.55
5	186496	34.51	36.55
5	187053	34.61	36.55
5	187610	34.71	36.55
5	188167	34.81	36.55
5	188724	34.91	36.55
5	189289	35.01	36.55
5	189846	35.11	36.55
5	190403	35.21	36.55
5	190960	35.31	36.55
5	191517	35.41	36.55
5	192074	35.51	36.55
5	192631	35.61	36.55
5	193188	35.71	36.55
5	193745	35.81	36.55
5	194302	35.91	36.55
5	194867	36.01	36.55
5	195424	36.11	36.55
5	195981	36.21	36.55
5	196538	36.31	36.55
5	197095	36.41	36.55
5	197652	36.51	36.55
5	198209	36.61	36.55
5	198766	36.71	36.55
5	199323	36.81	36.55
5	199880	36.91	36.55
5	200445	37.01	36.55
5	201002	37.11	36.55
5	201559	37.21	36.55
5	202116	37.31	36.55
5	202673	37.41	36.55
5	203230	37.51	36.55
5	203787	37.61	36.55
5	204344	37.71	36.55
5	204901	37.81	36.55
5	205458	37.91	36.55
5	206023	38.01	36.55
5	206580	38.11	36.55
5	207137	38.21	36.55
5	207694	38.31	36.55
5	208251	38.41	36.55
5	208808	38.51	36.55
5	209365	38.61	36.55
5	209922	38.71	36.55
5	210479	38.81	36.55
5	211036	38.91	36.55
5	211601	39.01	36.55
5	212158	39.11	36.55
5	212715	39.21	36.55
5	213272	39.31	36.55
5	213829	39.41	36.55
5	214386	39.51	36.55
5	214943	39.61	36.55
5	215500	39.71	36.55
5	216057	39.81	36.55
5	216614	39.91	36.55
5	217179	40.01	36.55
5	217736	40.11	36.55
5	218293	40.21	36.55
5	218850	40.31	36.55
5	219407	40.41	36.55
5	219964	40.51	36.55
5	220521	40.61	36.55
5	221078	40.71	36.55
5	221635	40.81	36.55
5	222192	40.91	36.55
5	222757	41.01	36.55
5	223314	41.11	36.55
5	223871	41.21	36.55
5	224428	41.31	36.55
5	224985	41.41	36.55
5	225542	41.51	36.55
5	226099	41.61	36.55
5	226656	41.71	36.55
5	227213	41.81	36.55
5	227770	41.91	36.55
5	228335	42.01	36.55
5	228892	42.11	36.55
5	229449	42.21	36.55
5	230006	42.31	36.55
5	230563	42.41	36.55
5	231120	42.51	36.55
5	231677	42.61	36.55
5	232234	42.71	36.55
5	232791	42.81	36.55
5	233348	42.91	36.55
5	233913	43.01	36.55
5	234470	43.11	36.55
5	235027	43.21	36.55
5	235584	43.31	36.55
5	236141	43.41	36.55
5	236698	43.51	36.55
5	237255	43.61	36.55
5	237812	43.71	36.55
5	238369	43.81	36.55
5	238926	43.91	36.55
5	239491	44.01	36.55
5	240048	44.11	36.55
5	240605	44.21	36.55
5	241162	44.31	36.55
5	241719	44.41	36.55
5	242276	44.51	36.55
5	242833	44.61	36.55
5	243390	44.71	36.55
5	243947	44.81	36.55
5	244504	44.91	36.55
5	245069	45.01	36.55
5	245626	45.11	36.55
5	246183	45.21	36.55
5	246740	45.31	36.55
5	247297	45.41	36.55
5	247854	45.51	36.55
5	248411	45.61	36.55
5	248968	45.71	36.55
5	249525	45.81	36.55
5	250082	45.91	36.55
5	250647	46.01	36.55
5	251204	46.11	36.55
5	251761	46.21	36.55
5	252318	46.31	36.55
5	252875	46.41	36.55
5	253432	46.51	36.55
5	253989	46.61	36.55
5	254546	46.71	36.55
5	255103	46.81	36.55
5	255660	46.91	36.55
5	256225	47.01	36.55
5	256782	47.11	36.55
5	257339	47.21	36.55
5	257896	47.31	36.55
5	258453	47.41	36.55
4	232	1.11	330.67929763767
4	788	1.21	333.45707549846
4	1344	1.31	336.23485335653
4	1900	1.41	339.01263121094
4	2456	1.51	341.79040906096
4	3012	1.61	344.56818690609
4	3568	1.71	347.34596474599
4	4124	1.81	350.1237425805
4	4680	1.91	352.90152040957
4	5244	2.01	355.67929823325
4	5800	2.11	358.45707605168
4	6356	2.21	361.23485386509
4	6912	2.31	364.01263167373
4	7468	2.41	366.79040947791
4	8024	2.51	369.56818727795
4	8580	2.61	372.3459650742
4	9136	2.71	375.12374286701
4	9692	2.81	377.90152065673
4	10248	2.91	380.6792984437
4	10812	3.01	383.45707622824
4	11368	3.11	386.23485401068
4	11924	3.21	389.0126317913
4	12480	3.31	391.79040957039
4	13036	3.41	394.56818734819
4	13592	3.51	397.34596512494
4	14148	3.61	400.12374290083
4	14704	3.71	402.90152067607
4	15260	3.81	405.67929845081
4	15816	3.91	408.4570762252
4	16380	4.01	411.23485399936
4	16936	4.11	414.0126317734
4	17492	4.21	416.7904095474
4	18048	4.31	419.56818732144
4	18604	4.41	422.34596509558
4	19160	4.51	425.12374286987
4	19716	4.61	427.90152064435
4	20272	4.71	430.67929841903
4	20828	4.81	433.45707619394
4	21384	4.91	436.23485396909
4	21949	5.01	439.01263174448
4	22506	5.11	441.7904108854
4	23063	5.21	444.56841652826
4	23620	5.31	447.34742226473
4	24177	5.41	450.12865272245
4	24734	5.51	452.91365788513
4	25291	5.61	455.70417261516
4	25848	5.71	458.50188239703
4	26405	5.81	461.30818927116
4	26962	5.91	464.1242435308
4	27527	6.01	466.95098881708
4	28084	6.11	469.78919924439
4	28641	6.21	472.63950985615
4	29198	6.31	475.50244160915
4	29755	6.41	478.37842186942
4	30312	6.51	481.26780119427
4	30869	6.61	484.17083733361
4	31426	6.71	487.0874838545
4	31983	6.81	490.0172142404
4	32540	6.91	492.95903971496
4	33105	7.01	495.9115455654
4	33662	7.11	498.8729346772
4	34219	7.21	501.84107712443
4	34776	7.31	504.81356464772
4	35333	7.41	507.78776931012
4	35890	7.51	510.76097818438
4	36447	7.61	513.73069346415
4	37004	7.71	516.6948480041
4	37561	7.81	519.6517460251
4	38118	7.91	522.59999639762
4	38683	8.01	525.53845791089
4	39240	8.11	528.46619437464
4	39797	8.21	531.38243778673
4	40354	8.31	534.28655811794
4	40911	8.41	537.17803852485
4	41468	8.51	540.05645501586
4	42025	8.61	542.92145977015
4	42582	8.71	545.77276745354
4	43139	8.81	548.61014399259
4	43696	8.91	551.43339736558
4	44261	9.01	554.24237004778
4	44818	9.11	557.03693281408
4	45375	9.21	559.81697965487
4	45932	9.31	562.58242360534
4	46489	9.41	565.33319332406
4	47046	9.51	568.06923254902
4	47603	9.61	570.79073658061
4	48160	9.71	573.49856674013
4	48717	9.81	576.19421478999
4	49274	9.91	578.87969784324
4	49839	10.01	581.55745373938
4	50396	10.11	584.23023819525
4	50953	10.21	586.9010239701
4	51510	10.31	589.57273927786
4	52067	10.41	592.24790542767
4	52624	10.51	594.9285972454
4	53181	10.61	597.6165168109
4	53738	10.71	600.31306042251
4	54295	10.81	603.01937353117
4	54852	10.91	605.73639580565
4	55417	11.01	608.46489810159
4	55974	11.11	611.20551278912
4	56531	11.21	613.95875863201
4	57088	11.31	616.72506119721
4	57645	11.41	619.50476959788
4	58202	11.51	622.29817022838
4	58759	11.61	625.10549803184
4	59316	11.71	627.92694574346
4	59873	11.81	630.76267147324
4	60430	11.91	633.61279012704
4	60995	12.01	636.47709667509
4	61552	12.11	639.35474580142
4	62109	12.21	642.24430840468
4	62666	12.31	645.14385859426
4	63223	12.41	648.05106248141
4	63780	12.51	650.96326740252
4	64337	12.61	653.8775911494
4	64894	12.71	656.79114497292
4	65451	12.81	659.70138309864
4	66008	12.91	662.60620642181
4	66573	13.01	665.50389294541
4	67130	13.11	668.39303003212
4	67687	13.21	671.2724588273
4	68244	13.31	674.14122866654
4	68801	13.41	676.99855967388
4	69358	13.51	679.84381207942
4	69915	13.61	682.67646104902
4	70472	13.71	685.49607603586
4	71029	13.81	688.3023038416
4	71586	13.91	691.09485472058
4	72151	14.01	693.87349098046
4	72708	14.11	696.6380176307
4	73265	14.21	699.38827471116
4	73822	14.31	702.12413099881
4	74379	14.41	704.84547962612
4	74936	14.51	707.55238713093
4	75493	14.61	710.24546881927
4	76050	14.71	712.92596842575
4	76607	14.81	715.59567176773
4	77164	14.91	718.2568123294
4	77729	15.01	720.91197671286
4	78286	15.11	723.56401083648
4	78843	15.21	726.21585757401
4	79400	15.31	728.87022607869
4	79957	15.41	731.52935808624
4	80514	15.51	734.19509260079
4	81071	15.61	736.86893824623
4	81628	15.71	739.55213261961
4	82185	15.81	742.24569098156
4	82742	15.91	744.95044619941
4	83307	16.01	747.66708151448
4	83864	16.11	750.39615742259
4	84421	16.21	753.13813372556
4	84978	16.31	755.89338762103
4	85535	16.41	758.66222854242
4	86092	16.51	761.44491033294
4	86649	16.61	764.24164123241
4	87206	16.71	767.05259207004
4	87763	16.81	769.87790298524
4	88320	16.91	772.71768792672
4	88885	17.01	775.57185039047
4	89442	17.11	778.43969200626
4	89999	17.21	781.3198991128
4	90556	17.31	784.2106324133
4	91113	17.41	787.10961939568
4	91670	17.51	790.01424698539
4	92227	17.61	792.92165371501
4	92784	17.71	795.82891393947
4	93341	17.81	798.73337539459
4	93898	17.91	801.63284610854
4	94463	18.01	804.52552790096
4	95020	18.11	807.40994563764
4	95577	18.21	810.28488919475
4	96134	18.31	813.14936584924
4	96691	18.41	816.00256122246
4	97248	18.51	818.84380724028
4	97805	18.61	821.6725558492
4	98362	18.71	824.48835745449
4	98919	18.81	827.29084323184
4	99476	18.91	830.07971061689
4	100041	19.01	832.85471140147
4	100598	19.11	835.61564196841
4	101155	19.21	838.36233528075
4	101712	19.31	841.09465430997
4	102269	19.41	843.8124875637
4	102826	19.51	846.51592020785
4	103383	19.61	849.20561977939
4	103940	19.71	851.88287401251
4	104497	19.81	854.54950236692
4	105054	19.91	857.20776286927
4	105619	20.01	859.86025875879
4	106176	20.11	862.50984571374
4	106733	20.21	865.15945572609
4	107290	20.31	867.81176209196
4	107847	20.41	870.46897518237
4	108404	20.51	873.1329082714
4	108961	20.61	875.80504887539
4	109518	20.71	878.48661727582
4	110075	20.81	881.17861452853
4	110632	20.91	883.88186184799
4	111197	21.01	886.59703291607
4	111754	21.11	889.32468038657
4	112311	21.21	892.06525762808
4	112868	21.31	894.81913656076
4	113425	21.41	897.58662228867
4	113982	21.51	900.36796510344
4	114539	21.61	903.16337033133
4	115096	21.71	905.97300641143
4	115653	21.81	908.79701152246
4	116210	21.91	911.6354980704
4	116775	22.01	914.48837676307
4	117332	22.11	917.35496864072
4	117889	22.21	920.23397634315
4	118446	22.31	923.12357304327
4	119003	22.41	926.02149533215
4	119560	22.51	928.92513631321
4	120117	22.61	931.83163815197
4	120674	22.71	934.7380712011
4	121231	22.81	937.64176995556
4	121788	22.91	940.54053086054
4	122353	23.01	943.43254623358
4	122910	23.11	946.31633314546
4	123467	23.21	949.19067507773
4	124024	23.31	952.05457406152
4	124581	23.41	954.90721141477
4	125138	23.51	957.74791553307
4	125695	23.61	960.57613546685
4	126252	23.71	963.39141924559
4	126809	23.81	966.19339609603
4	127366	23.91	968.98176185496
4	127931	24.01	971.75626700262
4	128488	24.11	974.51670684587
4	129045	24.21	977.26291346507
4	129602	24.31	979.99474910761
4	130159	24.41	982.71210170593
4	130716	24.51	985.41505902061
4	131273	24.61	988.10429577228
4	131830	24.71	990.78110574882
4	132387	24.81	993.44731304314
4	132944	24.91	996.10517906667
4	133509	25.01	998.7573093586
4	134066	25.11	1001.4065609531
4	134623	25.21	1004.0558643673
4	135180	25.31	1006.7078879974
4	135737	25.41	1009.3648379274
4	136294	25.51	1012.0285239147
4	136851	25.61	1014.7004305907
4	137408	25.71	1017.3817758701
4	137965	25.81	1020.0735588673
4	138522	25.91	1022.7765992041
4	139087	26.01	1025.4915692558
4	139644	26.11	1028.2190206042
4	140201	26.21	1030.9594057388
4	140758	26.31	1033.7130958583
4	141315	26.41	1036.4803954751
4	141872	26.51	1039.2615543954
4	142429	26.61	1042.0567775472
4	142986	26.71	1044.866233043
4	143543	26.81	1047.6900587934
4	144100	26.91	1050.5283669916
4	144665	27.01	1053.3810693086
4	145222	27.11	1056.2474894507
4	145779	27.21	1059.1263323042
4	146336	27.31	1062.0157727616
4	146893	27.41	1064.9135486702
4	147450	27.51	1067.8170539871
4	148007	27.61	1070.723431381
4	148564	27.71	1073.6297506577
4	149121	27.81	1076.5333444938
4	149678	27.91	1079.4320077439
4	150243	28.01	1082.3239314207
4	150800	28.11	1085.2076315245
4	151357	28.21	1088.0818906586
4	151914	28.31	1090.9457101337
4	152471	28.41	1093.798270677
4	153028	28.51	1096.638900199
4	153585	28.61	1099.4670473527
4	154142	28.71	1102.282259841
4	154699	28.81	1105.0841666233
4	155256	28.91	1107.8724633166
4	155821	29.01	1110.6469002212
4	156378	29.11	1113.4072724961
4	156935	29.21	1116.1534121004
4	157492	29.31	1118.8851811821
4	158049	29.41	1121.6024675947
4	158606	29.51	1124.3053594562
4	159163	29.61	1126.9945324766
4	159720	29.71	1129.6712812775
4	160277	29.81	1132.33743059
4	160834	29.91	1134.9952422915
4	161399	30.01	1137.6473222382
4	161956	30.11	1140.296527651
4	162513	30.21	1142.9457888441
4	163070	30.31	1145.5977735387
4	163627	30.41	1148.2546872288
4	164184	30.51	1150.9183391874
4	164741	30.61	1153.5902136487
4	165298	30.71	1156.2715282015
4	165855	30.81	1158.9632816929
4	166412	30.91	1161.6662935252
4	166977	31.01	1164.381235894
4	167534	31.11	1167.1086602335
4	168091	31.21	1169.849018912
4	168648	31.31	1172.6026830291
4	169205	31.41	1175.3699570154
4	169762	31.51	1178.1510906105
4	170319	31.61	1180.9462886875
4	170876	31.71	1183.7557193138
4	171433	31.81	1186.5795203633
4	171990	31.91	1189.4178039998
4	172555	32.01	1192.2704820269
4	173112	32.11	1195.1368785181
4	173669	32.21	1198.0156986692
4	174226	32.31	1200.9051176094
4	174783	32.41	1203.8028733589
4	175340	32.51	1206.7063599925
4	175897	32.61	1209.6127202483
4	176454	32.71	1212.5190238565
4	177011	32.81	1215.4226032436
4	177568	32.91	1218.3212530449
4	178133	33.01	1221.2131640936
4	178690	33.11	1224.0968522423
4	179247	33.21	1226.9710999737
4	179804	33.31	1229.8349084992
4	180361	33.41	1232.6874584643
4	180918	33.51	1235.5280777132
4	181475	33.61	1238.3562148437
4	182032	33.71	1241.1714175142
4	182589	33.81	1243.9733146468
4	183146	33.91	1246.7616018286
4	183711	34.01	1249.5360293349
4	184268	34.11	1252.2963923044
4	184825	34.21	1255.0425226796
4	185382	34.31	1257.7742825948
4	185939	34.41	1260.4915598924
4	186496	34.51	1263.1944427399
4	187053	34.61	1265.8836069834
4	187610	34.71	1268.5603473593
4	188167	34.81	1271.2264886866
4	188724	34.91	1273.8842929071
4	189289	35.01	1276.5363659204
4	189846	35.11	1279.1855649731
4	190403	35.21	1281.8348203516
4	190960	35.31	1284.4867996842
4	191517	35.41	1287.1437083834
4	192074	35.51	1289.8073556557
4	192631	35.61	1292.4792256804
4	193188	35.71	1295.1605360016
4	193745	35.81	1297.8522854295
4	194302	35.91	1300.5552933363
4	194867	36.01	1303.2702318926
4	195424	36.11	1305.9976525126
4	195981	36.21	1308.7380075476
4	196538	36.31	1311.4916680836
4	197095	36.41	1314.2589385402
4	197652	36.51	1317.0400686476
4	198209	36.61	1319.8352632713
4	198766	36.71	1322.6446904727
4	199323	36.81	1325.4684881204
4	199880	36.91	1328.3067683743
4	200445	37.01	1331.1594430563
4	201002	37.11	1334.0258362904
4	201559	37.21	1336.9046533149
4	202116	37.31	1339.7940692918
4	202673	37.41	1342.6918222651
4	203230	37.51	1345.5953063257
4	203787	37.61	1348.5016642212
4	204344	37.71	1351.4079656716
4	204901	37.81	1354.3115430688
4	205458	37.91	1357.210191018
4	206023	38.01	1360.1021003276
4	206580	38.11	1362.9857868299
4	207137	38.21	1365.8600329909
4	207694	38.31	1368.7238400084
4	208251	38.41	1371.5763885168
4	208808	38.51	1374.4170063508
4	209365	38.61	1377.245142101
4	209922	38.71	1380.0603434194
4	210479	38.81	1382.8622392231
4	211036	38.91	1385.650525095
4	211601	39.01	1388.424951307
4	212158	39.11	1391.185312995
4	212715	39.21	1393.9314420992
4	213272	39.31	1396.6632007519
4	213829	39.41	1399.3804767943
4	214386	39.51	1402.0833584004
4	214943	39.61	1404.7725214351
4	215500	39.71	1407.4492606508
4	216057	39.81	1410.1154008784
4	216614	39.91	1412.7732040686
4	217179	40.01	1415.425276127
4	217736	40.11	1418.0744743039
4	218293	40.21	1420.7237288816
4	218850	40.31	1423.3757074757
4	219407	40.41	1426.0326154876
4	219964	40.51	1428.6962621145
4	220521	40.61	1431.3681315282
4	221078	40.71	1434.0494412666
4	221635	40.81	1436.7411901349
4	222192	40.91	1439.4441975011
4	222757	41.01	1442.1591355324
4	223314	41.11	1444.8865556401
4	223871	41.21	1447.6269101734
4	224428	41.31	1450.3805702162
4	224985	41.41	1453.1478401867
4	225542	41.51	1455.9289698137
4	226099	41.61	1458.7241639619
4	226656	41.71	1461.5335906916
4	227213	41.81	1464.3573878709
4	227770	41.91	1467.1956676589
4	228335	42.01	1470.0483418802
4	228892	42.11	1472.9147346657
4	229449	42.21	1475.7935512597
4	230006	42.31	1478.6829668285
4	230563	42.41	1481.5807194194
4	231120	42.51	1484.4842031256
4	231677	42.61	1487.3905606961
4	232234	42.71	1490.2968618494
4	232791	42.81	1493.2004389725
4	233348	42.91	1496.0990866667
4	233913	43.01	1498.9909957367
4	234470	43.11	1501.8746820123
4	235027	43.21	1504.748927957
4	235584	43.31	1507.6127347669
4	236141	43.41	1510.4652830746
4	236698	43.51	1513.3059007138
4	237255	43.61	1516.1340362739
4	237812	43.71	1518.9492374061
4	238369	43.81	1521.7511330268
4	238926	43.91	1524.5394187183
4	239491	44.01	1527.313844752
4	240048	44.11	1530.0742062635
4	240605	44.21	1532.8203351927
4	241162	44.31	1535.5520936716
4	241719	44.41	1538.2693695411
4	242276	44.51	1540.9722509762
4	242833	44.61	1543.6614138445
4	243390	44.71	1546.3381529003
4	243947	44.81	1549.0042929765
4	244504	44.91	1551.6620960248
4	245069	45.01	1554.3141679518
4	245626	45.11	1556.963366008
4	246183	45.21	1559.6126204754
4	246740	45.31	1562.2645989678
4	247297	45.41	1564.921506885
4	247854	45.51	1567.585153423
4	248411	45.61	1570.2570227526
4	248968	45.71	1572.9383324108
4	249525	45.81	1575.630081202
4	250082	45.91	1578.3330884938
4	250647	46.01	1581.0480264528
4	251204	46.11	1583.7754464899
4	251761	46.21	1586.5158009541
4	252318	46.31	1589.269460929
4	252875	46.41	1592.0367308325
4	253432	46.51	1594.8178603934
4	253989	46.61	1597.6130544761
4	254546	46.71	1600.4224811408
4	255103	46.81	1603.2462782556
4	255660	46.91	1606.0845579795
4	256225	47.01	1608.9372321374
4	256782	47.11	1611.8036248611
4	257339	47.21	1614.6824413957
4	257896	47.31	1617.5718569083
4	258453	47.41	1620.4696094466
3	232	1.11	27.777778619612
3	788	1.21	27.777778599967
3	1344	1.31	27.777778569105
3	1900	1.41	27.777778529595
3	2456	1.51	27.777778483698
3	3012	1.61	27.777778433385
3	3568	1.71	27.777778380352
3	4124	1.81	27.777778326039
3	4680	1.91	27.77777827165
3	5244	2.01	27.777778218173
3	5800	2.11	27.777778166406
3	6356	2.21	27.777778116967
3	6912	2.31	27.777778070327
3	7468	2.41	27.777778026819
3	8024	2.51	27.77777798666
3	8580	2.61	27.77777794997
3	9136	2.71	27.777777916782
3	9692	2.81	27.777777887063
3	10248	2.91	27.777777860724
3	10812	3.01	27.777777837628
3	11368	3.11	27.777777817609
3	11924	3.21	27.777777800471
3	12480	3.31	27.777777786005
3	13036	3.41	27.777777773991
3	13592	3.51	27.777777764203
3	14148	3.61	27.777777756416
3	14704	3.71	27.777777750412
3	15260	3.81	27.777777745977
3	15816	3.91	27.77777774291
3	16380	4.01	27.777777741018
3	16936	4.11	27.777777740126
3	17492	4.21	27.77777774007
3	18048	4.31	27.7777777407
3	18604	4.41	27.777777741882
3	19160	4.51	27.777777743495
3	19716	4.61	27.777777745434
3	20272	4.71	27.777777747604
3	20828	4.81	27.777777749925
3	21384	4.91	27.777777752329
3	21949	5.01	27.777777754758
3	22506	5.11	27.777846021452
3	23063	5.21	27.782059596653
3	23620	5.31	27.795775862036
3	24177	5.41	27.823056285431
3	24734	5.51	27.866721940626
3	25291	5.61	27.928063782047
3	25848	5.71	28.005327711868
3	26405	5.81	28.095658800357
3	26962	5.91	28.196709510244
3	27527	6.01	28.30655404332
3	28084	6.11	28.423612574297
3	28641	6.21	28.54658909619
3	29198	6.31	28.674420431867
3	29755	6.41	28.80623440578
3	30312	6.51	28.941313946553
3	30869	6.61	29.078388981218
3	31426	6.71	29.213351897492
3	31983	6.81	29.341385131305
3	32540	6.91	29.457981732945
3	33105	7.01	29.559024895864
3	33662	7.11	29.640856051762
3	34219	7.21	29.700331349918
3	34776	7.31	29.734866440411
3	35333	7.41	29.742492528104
3	35890	7.51	29.72320356612
3	36447	7.61	29.680432143932
3	37004	7.71	29.618396925437
3	37561	7.81	29.540558684394
3	38118	7.91	29.449756460671
3	38683	8.01	29.348319255796
3	39240	8.11	29.238157662213
3	39797	8.21	29.120839031188
3	40354	8.31	28.997649136664
3	40911	8.41	28.86964276111
3	41468	8.51	28.737685193533
3	42025	8.61	28.602486272297
3	42582	8.71	28.464628312097
3	43139	8.81	28.324589013804
3	43696	8.91	28.182760258515
3	44261	9.01	28.039463525222
3	44818	9.11	27.894962538668
3	45375	9.21	27.749473644999
3	45932	9.31	27.603174323409
3	46489	9.41	27.456210168651
3	47046	9.51	27.308798307138
3	47603	9.61	27.165456941051
3	48160	9.71	27.033088438825
3	48717	9.81	26.917629526736
3	49274	9.91	26.823966096352
3	49839	10.01	26.755942052805
3	50396	10.11	26.716381687291
3	50953	10.21	26.707072901132
3	51510	10.31	26.725876201723
3	52067	10.41	26.768249212414
3	52624	10.51	26.829957594714
3	53181	10.61	26.90752771624
3	53738	10.71	26.998109988574
3	54295	10.81	27.099366756701
3	54852	10.91	27.209380329303
3	55417	11.01	27.326577531569
3	55974	11.11	27.449667812217
3	56531	11.21	27.577592469696
3	57088	11.31	27.709482999991
3	57645	11.41	27.844626927306
3	58202	11.51	27.982439773336
3	58759	11.61	28.122442062297
3	59316	11.71	28.264240457043
3	59873	11.81	28.407512284116
3	60430	11.91	28.5515861915
3	60995	12.01	28.691427297144
3	61552	12.11	28.820647386679
3	62109	12.21	28.933709262078
3	62666	12.31	29.025954034973
3	63223	12.41	29.093614170539
3	63780	12.51	29.133813231597
3	64337	12.61	29.144595455085
3	64894	12.71	29.127327372936
3	65451	12.81	29.086213776084
3	66008	12.91	29.025538551786
3	66573	13.01	28.948815979671
3	67130	13.11	28.858928993054
3	67687	13.21	28.758242601384
3	68244	13.31	28.648696936139
3	68801	13.41	28.531883580877
3	69358	13.51	28.409108188466
3	69915	13.61	28.281441849017
3	70472	13.71	28.14976322948
3	71029	13.81	28.014793142794
3	71586	13.91	27.877122906629
3	72151	14.01	27.737237607429
3	72708	14.11	27.595535185033
3	73265	14.21	27.452342088714
3	73822	14.31	27.307926120577
3	74379	14.41	27.162546024449
3	74936	14.51	27.019330871672
3	75493	14.61	26.884559196285
3	76050	14.71	26.764258967301
3	76607	14.81	26.663521929862
3	77164	14.91	26.586493202078
3	77729	15.01	26.536374688625
3	78286	15.11	26.515419708568
3	78843	15.21	26.523668857685
3	79400	15.31	26.557383788157
3	79957	15.41	26.611989529068
3	80514	15.51	26.683733010807
3	81071	15.61	26.769535409097
3	81628	15.71	26.866871015679
3	82185	15.81	26.973667870074
3	82742	15.91	27.088226243028
3	83307	16.01	27.209151764536
3	83864	16.11	27.335300565535
3	84421	16.21	27.465734274985
3	84978	16.31	27.599683101797
3	85535	16.41	27.736515549161
3	86092	16.51	27.875713569743
3	86649	16.61	28.016852184292
3	87206	16.71	28.159582761803
3	87763	16.81	28.303619303423
3	88320	16.91	28.448676617794
3	88885	17.01	28.590971447913
3	89442	17.11	28.724006207991
3	89999	17.21	28.841930784337
3	90556	17.31	28.939810791426
3	91113	17.41	29.013638834762
3	91670	17.51	29.060332154734
3	92227	17.61	29.077746642843
3	92784	17.71	29.066350790361
3	93341	17.81	29.030054467132
3	93898	17.91	28.973331085061
3	94463	18.01	28.899850399997
3	95020	18.11	28.812622889912
3	95577	18.21	28.714118195293
3	96134	18.31	28.606362281514
3	96691	18.41	28.491017145825
3	97248	18.51	28.369446204845
3	97805	18.61	28.242767935079
3	98362	18.71	28.111899876827
3	98919	18.81	27.977594732713
3	99476	18.91	27.840469981056
3	100041	19.01	27.701032169144
3	100598	19.11	27.559696842186
3	101155	19.21	27.416804891984
3	101712	19.31	27.272635968552
3	102269	19.41	27.127465418657
3	102826	19.51	26.984833896344
3	103383	19.61	26.851159734065
3	103940	19.71	26.732358896103
3	104497	19.81	26.633424036685
3	105054	19.91	26.558413554113
3	105619	20.01	26.510454337265
3	106176	20.11	26.4917309481
3	106733	20.21	26.50196337238
3	107290	20.31	26.53730527926
3	107847	20.41	26.593245707503
3	108404	20.51	26.666084097724
3	108961	20.61	26.752784702327
3	109518	20.71	26.85085715093
3	110075	20.81	26.958258472424
3	110632	20.91	27.073312718935
3	111197	21.01	27.194645029473
3	111754	21.11	27.321127539161
3	112311	21.21	27.451835005966
3	112868	21.31	27.58600840916
3	113425	21.41	27.723025087377
3	113982	21.51	27.862374241425
3	114539	21.61	28.003636838057
3	115096	21.71	28.146469124058
3	115653	21.81	28.290589102065
3	116210	21.91	28.435718002991
3	116775	22.01	28.578225822974
3	117332	22.11	28.711663912643
3	117889	22.21	28.83014072939
3	118446	22.31	28.928685230703
3	119003	22.41	29.003257937223
3	119560	22.51	29.050748330675
3	120117	22.61	29.068986857173
3	120674	22.71	29.058323427182
3	121231	22.81	29.022627945499
3	121788	22.91	28.966397462768
3	122353	23.01	28.89332112684
3	122910	23.11	28.806425323882
3	123467	23.21	28.70819274464
3	124024	23.31	28.600660060247
3	124581	23.41	28.485498050406
3	125138	23.51	28.364077336405
3	125695	23.61	28.237522305085
3	126252	23.71	28.106755345282
3	126809	23.81	27.97253313711
3	127366	23.91	27.835476421811
3	127931	24.01	27.696094423411
3	128488	24.11	27.554804882971
3	129045	24.21	27.411950493662
3	129602	24.31	27.267812383245
3	130159	24.41	27.122668052051
3	130716	24.51	26.980114349492
3	131273	24.61	26.846588675637
3	131830	24.71	26.727991635756
3	132387	24.81	26.629302292308
3	132944	24.91	26.554567145367
3	133509	25.01	26.506902788277
3	134066	25.11	26.488484344384
3	134623	25.21	26.498987841018
3	135180	25.31	26.534552121643
3	135737	25.41	26.590674973809
3	136294	25.51	26.663663015186
3	136851	25.61	26.75048638586
3	137408	25.71	26.8486595454
3	137965	25.81	26.956143484941
3	138522	25.91	27.071265507027
3	139087	26.01	27.192653417141
3	139644	26.11	27.319181537848
3	140201	26.21	27.449926421574
3	140758	26.31	27.584130519676
3	141315	26.41	27.721172378408
3	141872	26.51	27.86054218925
3	142429	26.61	28.001821731647
3	142986	26.71	28.144667919078
3	143543	26.81	28.288799301099
3	144100	26.91	28.433937906563
3	144665	27.01	28.576474582405
3	145222	27.11	28.709967753931
3	145779	27.21	28.828520179047
3	146336	27.31	28.927155771518
3	146893	27.41	29.001830636677
3	147450	27.51	29.049430435655
3	148007	27.61	29.067782111948
3	148564	27.71	29.057219263808
3	149121	27.81	29.021606294275
3	149678	27.91	28.965443500247
3	150243	28.01	28.892422692631
3	150800	28.11	28.805572442229
3	151357	28.21	28.707377231949
3	151914	28.31	28.599875203121
3	152471	28.41	28.48473834152
3	153028	28.51	28.363338257835
3	153585	28.61	28.23680015056
3	154142	28.71	28.106047074368
3	154699	28.81	27.971836255593
3	155256	28.91	27.834788883566
3	155821	29.01	27.695414549904
3	156378	29.11	27.554131297218
3	156935	29.21	27.411282066058
3	157492	29.31	27.267148187119
3	158049	29.41	27.122007456828
3	158606	29.51	26.979464462325
3	159163	29.61	26.84595922909
3	159720	29.71	26.727390247301
3	160277	29.81	26.628734707679
3	160834	29.91	26.554037471766
3	161399	30.01	26.506413715074
3	161956	30.11	26.488037261118
3	162513	30.21	26.498578083731
3	163070	30.31	26.534172984659
3	163627	30.41	26.590320956139
3	164184	30.51	26.663329604102
3	164741	30.61	26.750169879354
3	165298	30.71	26.848356906536
3	165855	30.81	26.955852222374
3	166412	30.91	27.070983576984
3	166977	31.01	27.19237914302
3	167534	31.11	27.318913544249
3	168091	31.21	27.449663580191
3	168648	31.31	27.583871904903
3	169205	31.41	27.720917230929
3	169762	31.51	27.860289886159
3	170319	31.61	28.001571761945
3	170876	31.71	28.144419863567
3	171433	31.81	28.288552815892
3	171990	31.91	28.433692757653
3	172555	32.01	28.576233407281
3	173112	32.11	28.709734164377
3	173669	32.21	28.828297001933
3	174226	32.31	28.926945139104
3	174783	32.41	29.001634073159
3	175340	32.51	29.049248939068
3	175897	32.61	29.067616197954
3	176454	32.71	29.057067201598
3	177011	32.81	29.021465595353
3	177568	32.91	28.965312123179
3	178133	33.01	28.89229896273
3	178690	33.11	28.805454985668
3	179247	33.21	28.707264921712
3	179804	33.31	28.599767114663
3	180361	33.41	28.484633716391
3	180918	33.51	28.363236473841
3	181475	33.61	28.236700697287
3	182032	33.71	28.105949533098
3	182589	33.81	27.971740282831
3	183146	33.91	27.834694197528
3	183711	34.01	27.695320919427
3	184268	34.11	27.554038532669
3	184825	34.21	27.411190011872
3	185382	34.31	27.267056715677
3	185939	34.41	27.12191648129
3	186496	34.51	26.979374961472
3	187053	34.61	26.845872543266
3	187610	34.71	26.727307425566
3	188167	34.81	26.628656541322
3	188724	34.91	26.553964526421
3	189289	35.01	26.506346361114
3	189846	35.11	26.487975689908
3	190403	35.21	26.498521652962
3	190960	35.31	26.534120770842
3	191517	35.41	26.590272201691
3	192074	35.51	26.663283687543
3	192631	35.61	26.750126290851
3	193188	35.71	26.848315227851
3	193745	35.81	26.955812110404
3	194302	35.91	27.070944750266
3	194867	36.01	27.192341370657
3	195424	36.11	27.318876636823
3	195981	36.21	27.449627382316
3	196538	36.31	27.583836289107
3	197095	36.41	27.72088209264
3	197652	36.51	27.860255139592
3	198209	36.61	28.001537336726
3	198766	36.71	28.144385701967
3	199323	36.81	28.28851887055
3	199880	36.91	28.433658996343
3	200445	37.01	28.576200193231
3	201002	37.11	28.709701994993
3	201559	37.21	28.828266266525
3	202116	37.31	28.926916131321
3	202673	37.41	29.00160700291
3	203230	37.51	29.0492239438
3	203787	37.61	29.067593348683
3	204344	37.71	29.057046259961
3	204901	37.81	29.02144621864
3	205458	37.91	28.965294030249
3	206023	38.01	28.892281922949
3	206580	38.11	28.805438809836
3	207137	38.21	28.70724945462
3	207694	38.31	28.599752228983
3	208251	38.41	28.484619307673
3	208808	38.51	28.363222456397
3	209365	38.61	28.236687000824
3	209922	38.71	28.105936099952
3	210479	38.81	27.971727065696
3	211036	38.91	27.834681157597
3	211601	39.01	27.695308024865
3	212158	39.11	27.554025757361
3	212715	39.21	27.411177334393
3	213272	39.31	27.267044118453
3	213829	39.41	27.121903952361
3	214386	39.51	26.979362635632
3	214943	39.61	26.845860605106
3	215500	39.71	26.727296019558
3	216057	39.81	26.628645776441
3	216614	39.91	26.553954480566
3	217179	40.01	26.506337085291
3	217736	40.11	26.487967210471
3	218293	40.21	26.498513881454
3	218850	40.31	26.534113580083
3	219407	40.41	26.590265487348
3	219964	40.51	26.663277364026
3	220521	40.61	26.750120287949
3	221078	40.71	26.848309487963
3	221635	40.81	26.95580658628
3	222192	40.91	27.070939403145
3	222757	41.01	27.192336168738
3	223314	41.11	27.318871554021
3	223871	41.21	27.449622397231
3	224428	41.31	27.583831384185
3	224985	41.41	27.720877253479
3	225542	41.51	27.860250354378
3	226099	41.61	28.001532595767
3	226656	41.71	28.144380997312
3	227213	41.81	28.288514195678
3	227770	41.91	28.433654346815
3	228335	42.01	28.57619561907
3	228892	42.11	28.709697564702
3	229449	42.21	28.828262033717
3	230006	42.31	28.926912136438
3	230563	42.41	29.001603274859
3	231120	42.51	29.04922050151
3	231677	42.61	29.067590201935
3	232234	42.71	29.057043375928
3	232791	42.81	29.021443550125
3	233348	42.91	28.965291538533
3	233913	43.01	28.89227957627
3	234470	43.11	28.805436582139
3	235027	43.21	28.707247324528
3	235584	43.31	28.599750178963
3	236141	43.41	28.484617323338
3	236698	43.51	28.363220525947
3	237255	43.61	28.236685114579
3	237812	43.71	28.105934249971
3	238369	43.81	27.971725245463
3	238926	43.91	27.834679361769
3	239491	44.01	27.695306249056
3	240048	44.11	27.554023997975
3	240605	44.21	27.41117558848
3	241162	44.31	27.267042383592
3	241719	44.41	27.121902226905
3	242276	44.51	26.979360938146
3	242833	44.61	26.845858961009
3	243390	44.71	26.727294448749
3	243947	44.81	26.628644293927
3	244504	44.91	26.553953097073
3	245069	45.01	26.506335807846
3	245626	45.11	26.487966042703
3	246183	45.21	26.49851281118
3	246740	45.31	26.534112589788
3	247297	45.41	26.590264562664
3	247854	45.51	26.663276493166
3	248411	45.61	26.750119461243
3	248968	45.71	26.848308697479
3	249525	45.81	26.955805825511
3	250082	45.91	27.070938666752
3	250647	46.01	27.192335452342
3	251204	46.11	27.31887085403
3	251761	46.21	27.449621710698
3	252318	46.31	27.583830708691
3	252875	46.41	27.720876587041
3	253432	46.51	27.86024969537
3	253989	46.61	28.001531942854
3	254546	46.71	28.144380349399
3	255103	46.81	28.288513551866
3	255660	46.91	28.433653706494
3	256225	47.01	28.576194989128
3	256782	47.11	28.709696954573
3	257339	47.21	28.828261450785
3	257896	47.31	28.926911586273
3	258453	47.41	29.001602761442
1	232	1.11	0
1	788	1.21	0
1	1344	1.31	0
1	1900	1.41	0
1	2456	1.51	0
1	3012	1.61	0
1	3568	1.71	0
1	4124	1.81	0
1	4680	1.91	0
1	5244	2.01	0
1	5800	2.11	0
1	6356	2.21	0
1	6912	2.31	0
1	7468	2.41	0
1	8024	2.51	0
1	8580	2.61	0
1	9136	2.71	0
1	9692	2.81	0
1	10248	2.91	0
1	10812	3.01	0
1	11368	3.11	0
1	11924	3.21	0
1	12480	3.31	0
1	13036	3.41	0
1	13592	3.51	0
1	14148	3.61	0
1	14704	3.71	0
1	15260	3.81	0
1	15816	3.91	0
1	16380	4.01	0
1	16936	4.11	0
1	17492	4.21	0
1	18048	4.31	0
1	18604	4.41	0
1	19160	4.51	0
1	19716	4.61	0
1	20272	4.71	0
1	20828	4.81	0
1	21384	4.91	0
1	21949	5.01	0
1	22506	5.11	0
1	23063	5.21	0
1	23620	5.31	0
1	24177	5.41	0
1	24734	5.51	0
1	25291	5.61	0
1	25848	5.71	0
1	26405	5.81	0
1	26962	5.91	0
1	27527	6.01	0
1	28084	6.11	0
1	28641	6.21	0
1	29198	6.31	0
1	29755	6.41	0
1	30312	6.51	0
1	30869	6.61	0
1	31426	6.71	0
1	31983	6.81	0
1	32540	6.91	0
1	33105	7.01	0
1	33662	7.11	0
1	34219	7.21	0
1	34776	7.31	0
1	35333	7.41	0
1	35890	7.51	0
1	36447	7.61	0
1	37004	7.71	0
1	37561	7.81	0
1	38118	7.91	0
1	38683	8.01	0
1	39240	8.11	0
1	39797	8.21	0
1	40354	8.31	0
1	40911	8.41	0
1	41468	8.51	0
1	42025	8.61	0
1	42582	8.71	0
1	43139	8.81	0
1	43696	8.91	0
1	44261	9.01	0
1	44818	9.11	0
1	45375	9.21	0
1	45932	9.31	0
1	46489	9.41	0
1	47046	9.51	0
1	47603	9.61	0
1	48160	9.71	0
1	48717	9.81	0
1	49274	9.91	0
1	49839	10.01	0
1	50396	10.11	0
1	50953	10.21	0
1	51510	10.31	0
1	52067	10.41	0
1	52624	10.51	0
1	53181	10.61	0
1	53738	10.71	0
1	54295	10.81	0
1	54852	10.91	0
1	55417	11.01	0
1	55974	11.11	0
1	56531	11.21	0
1	57088	11.31	0
1	57645	11.41	0
1	58202	11.51	0
1	58759	11.61	0
1	59316	11.71	0
1	59873	11.81	0
1	60430	11.91	0
1	60995	12.01	0
1	61552	12.11	0
1	62109	12.21	0
1	62666	12.31	0
1	63223	12.41	0
1	63780	12.51	0
1	64337	12.61	0
1	64894	12.71	0
1	65451	12.81	0
1	66008	12.91	0
1	66573	13.01	0
1	67130	13.11	0
1	67687	13.21	0
1	68244	13.31	0
1	68801	13.41	0
1	69358	13.51	0
1	69915	13.61	0
1	70472	13.71	0
1	71029	13.81	0
1	71586	13.91	0
1	72151	14.01	0
1	72708	14.11	0
1	73265	14.21	0
1	73822	14.31	0
1	74379	14.41	0
1	74936	14.51	0
1	75493	14.61	0
1	76050	14.71	0
1	76607	14.81	0
1	77164	14.91	0
1	77729	15.01	0
1	78286	15.11	0
1	78843	15.21	0
1	79400	15.31	0
1	79957	15.41	0
1	80514	15.51	0
1	81071	15.61	0
1	81628	15.71	0
1	82185	15.81	0
1	82742	15.91	0
1	83307	16.01	0
1	83864	16.11	0
1	84421	16.21	0
1	84978	16.31	0
1	85535	16.41	0
1	86092	16.51	0
1	86649	16.61	0
1	87206	16.71	0
1	87763	16.81	0
1	88320	16.91	0
1	88885	17.01	0
1	89442	17.11	0
1	89999	17.21	0
1	90556	17.31	0
1	91113	17.41	0
1	91670	17.51	0
1	92227	17.61	0
1	92784	17.71	0
1	93341	17.81	0
1	93898	17.91	0
1	94463	18.01	0
1	95020	18.11	0
1	95577	18.21	0
1	96134	18.31	0
1	96691	18.41	0
1	97248	18.51	0
1	97805	18.61	0
1	98362	18.71	0
1	98919	18.81	0
1	99476	18.91	0
1	100041	19.01	0
1	100598	19.11	0
1	101155	19.21	0
1	101712	19.31	0
1	102269	19.41	0
1	102826	19.51	0
1	103383	19.61	0
1	103940	19.71	0
1	104497	19.81	0
1	105054	19.91	0
1	105619	20.01	0
1	106176	20.11	0
1	106733	20.21	0
1	107290	20.31	0
1	107847	20.41	0
1	108404	20.51	0
1	108961	20.61	0
1	109518	20.71	0
1	110075	20.81	0
1	110632	20.91	0
1	111197	21.01	0
1	111754	21.11	0
1	112311	21.21	0
1	112868	21.31	0
1	113425	21.41	0
1	113982	21.51	0
1	114539	21.61	0
1	115096	21.71	0
1	115653	21.81	0
1	116210	21.91	0
1	116775	22.01	0
1	117332	22.11	0
1	117889	22.21	0
1	118446	22.31	0
1	119003	22.41	0
1	119560	22.51	0
1	120117	22.61	0
1	120674	22.71	0
1	121231	22.81	0
1	121788	22.91	0
1	122353	23.01	0
1	122910	23.11	0
1	123467	23.21	0
1	124024	23.31	0
1	124581	23.41	0
1	125138	23.51	0
1	125695	23.61	0
1	126252	23.71	0
1	126809	23.81	0
1	127366	23.91	0
1	127931	24.01	0
1	128488	24.11	0
1	129045	24.21	0
1	129602	24.31	0
1	130159	24.41	0
1	130716	24.51	0
1	131273	24.61	0
1	131830	24.71	0
1	132387	24.81	0
1	132944	24.91	0
1	133509	25.01	0
1	134066	25.11	0
1	134623	25.21	0
1	135180	25.31	0
1	135737	25.41	0
1	136294	25.51	0
1	136851	25.61	0
1	137408	25.71	0
1	137965	25.81	0
1	138522	25.91	0
1	139087	26.01	0
1	139644	26.11	0
1	140201	26.21	0
1	140758	26.31	0
1	141315	26.41	0
1	141872	26.51	0
1	142429	26.61	0
1	142986	26.71	0
1	143543	26.81	0
1	144100	26.91	0
1	144665	27.01	0
1	145222	27.11	0
1	145779	27.21	0
1	146336	27.31	0
1	146893	27.41	0
1	147450	27.51	0
1	148007	27.61	0
1	148564	27.71	0
1	149121	27.81	0
1	149678	27.91	0
1	150243	28.01	0
1	150800	28.11	0
1	151357	28.21	0
1	151914	28.31	0
1	152471	28.41	0
1	153028	28.51	0
1	153585	28.61	0
1	154142	28.71	0
1	154699	28.81	0
1	155256	28.91	0
1	155821	29.01	0
1	156378	29.11	0
1	156935	29.21	0
1	157492	29.31	0
1	158049	29.41	0
1	158606	29.51	0
1	159163	29.61	0
1	159720	29.71	0
1	160277	29.81	0
1	160834	29.91	0
1	161399	30.01	0
1	161956	30.11	0
1	162513	30.21	0
1	163070	30.31	0
1	163627	30.41	0
1	164184	30.51	0
1	164741	30.61	0
1	165298	30.71	0
1	165855	30.81	0
1	166412	30.91	0
1	166977	31.01	0
1	167534	31.11	0
1	168091	31.21	0
1	168648	31.31	0
1	169205	31.41	0
1	169762	31.51	0
1	170319	31.61	0
1	170876	31.71	0
1	171433	31.81	0
1	171990	31.91	0
1	172555	32.01	0
1	173112	32.11	0
1	173669	32.21	0
1	174226	32.31	0
1	174783	32.41	0
1	175340	32.51	0
1	175897	32.61	0
1	176454	32.71	0
1	177011	32.81	0
1	177568	32.91	0
1	178133	33.01	0
1	178690	33.11	0
1	179247	33.21	0
1	179804	33.31	0
1	180361	33.41	0
1	180918	33.51	0
1	181475	33.61	0
1	182032	33.71	0
1	182589	33.81	0
1	183146	33.91	0
1	183711	34.01	0
1	184268	34.11	0
1	184825	34.21	0
1	185382	34.31	0
1	185939	34.41	0
1	186496	34.51	0
1	187053	34.61	0
1	187610	34.71	0
1	188167	34.81	0
1	188724	34.91	0
1	189289	35.01	0
1	189846	35.11	0
1	190403	35.21	0
1	190960	35.31	0
1	191517	35.41	0
1	192074	35.51	0
1	192631	35.61	0
1	193188	35.71	0
1	193745	35.81	0
1	194302	35.91	0
1	194867	36.01	0
1	195424	36.11	0
1	195981	36.21	0
1	196538	36.31	0
1	197095	36.41	0
1	197652	36.51	0
[...]
101	245692	45.169559605537	0.100001206405
101	246249	45.269560807276	0.100001201739
101	246806	45.369562004394	0.100001197118
101	247363	45.469563196947	0.100001192553
101	247920	45.569564384987	0.10000118804
101	248477	45.66956556858	0.100001183593
101	249034	45.769566747786	0.100001179206
101	249591	45.869554922665	0.099988174879
101	250148	45.969556093276	0.100001170611
101	250713	46.069557259676	0.1000011664
101	251270	46.169558421914	0.100001162238
101	251827	46.269559580041	0.100001158127
101	252384	46.369560734103	0.100001154062
101	252941	46.469561884144	0.100001150041
101	253498	46.569563030205	0.100001146061
101	254055	46.669564172323	0.100001142118
101	254612	46.769565310537	0.100001138214
101	255169	46.869566444883	0.100001134346
101	255726	46.969554575398	0.099988130515
101	256291	47.069555702114	0.100001126716
101	256848	47.169556825061	0.100001122947
101	257405	47.269557944257	0.100001119196
101	257962	47.369559059713	0.100001115456
102	1312	1.306020875131	0.099936575068
102	1868	1.406100450199	0.100079575068
102	2424	1.506089025267	0.099988575068
102	2980	1.606064600335	0.099975575068
102	3536	1.706079175403	0.100014575068
102	4092	1.806093750471	0.100014575068
102	4648	1.906082325539	0.099988575068
102	5212	2.006018900607	0.099936575068
102	5768	2.106085475675	0.100066575068
102	6324	2.206022050743	0.099936575068
102	6880	2.306101625811	0.100079575068
102	7436	2.406077200879	0.099975575068
102	7992	2.506039775947	0.099962575068
102	8548	2.606093351015	0.100053575068
102	9104	2.706016926083	0.099923575068
102	9660	2.806031501151	0.100014575068
102	10216	2.906098076219	0.100066575068
102	10780	3.006073651287	0.099975575068
102	11336	3.106010226355	0.099936575068
102	11892	3.206063801423	0.100053575068
102	12448	3.306052376491	0.099988575068
102	13004	3.406014951559	0.099962575068
102	13560	3.506107526627	0.100092575068
102	14116	3.606044101695	0.099936575068
102	14672	3.706084676763	0.100040575068
102	15228	3.806060251831	0.099975575068
102	15784	3.906035826899	0.099975575068
102	16348	4.006024401967	0.099988575068
102	16904	4.106038977035	0.100014575068
102	17460	4.206014552103	0.099975575068
102	18016	4.306107127171	0.100092575068
102	18572	4.406017702239	0.099910575068
102	19128	4.506071277307	0.100053575068
102	19684	4.606059852375	0.099988575068
102	20240	4.706074427443	0.100014575068
102	20796	4.806063002511	0.099988575068
102	21352	4.906103577579	0.100040575068
102	21917	5.006027152647	0.099923575068
102	22474	5.106093727715	0.100066575068
102	23031	5.206082302783	0.099988575068
102	23588	5.306057877853	0.09997557507
102	24145	5.406007452934	0.099949575081
102	24702	5.506074028042	0.100066575108
102	25259	5.606062603205	0.099988575163
102	25816	5.70601217846	0.099949575255
102	26373	5.806052753855	0.100040575395
102	26930	5.906041329447	0.099988575592
102	27495	6.006029905296	0.099988575849
102	28052	6.106005481468	0.099975576172
102	28609	6.206059058028	0.10005357656
102	29166	6.306073635043	0.100014577015
102	29723	6.406101212581	0.100027577538
102	30280	6.50603779071	0.099936578129
102	30837	6.606091369495	0.100053578785
102	31394	6.706066949001	0.099975579506
102	31951	6.806068529284	0.100001580283
102	32508	6.906070110401	0.100001581117
102	33073	7.006071692393	0.100001581992
102	33630	7.10603427529	0.099962582897
102	34187	7.20602285911	0.09998858382
102	34744	7.306011443856	0.099988584746
102	35301	7.406026029512	0.100014585656
102	35858	7.50604061605	0.100014586538
102	36415	7.606042203423	0.100001587373
102	36972	7.706108791571	0.100066588148
102	37523	7.806084380428	0.099975588857
102	38080	7.90608596992	0.100001589492
102	38645	8.006061559972	0.099975590052
102	39202	8.106011150505	0.099949590533
102	39759	8.206025741442	0.100014590937
102	40316	8.306053332709	0.100027591267
102	40873	8.406054924235	0.100001591526
102	41430	8.50603051595	0.099975591715
102	41987	8.60607110779	0.10004059184
102	42544	8.706072699691	0.100001591901
102	43101	8.806074291596	0.100001591905
102	43658	8.906088883445	0.100014591849
102	44223	9.006038475188	0.099949591743
102	44780	9.106066066772	0.100027591584
102	45337	9.206067658146	0.100001591374
102	45894	9.306017249262	0.099949591116
102	46451	9.40604484007	0.100027590808
102	47008	9.506020430522	0.099975590452
102	47565	9.606087020565	0.100066590043
102	48122	9.706049610159	0.099962589594
102	48679	9.806038199261	0.099988589102
102	49236	9.906026787842	0.099988588581
102	49801	10.006015375885	0.099988588043
102	50358	10.106081963387	0.100066587502
102	50915	10.206031550364	0.099949586977
102	51472	10.306072136847	0.100040586483
102	52029	10.406034722883	0.099962586036
102	52586	10.506101308532	0.100066585649
102	53143	10.606024893858	0.099923585326
102	53700	10.706104478935	0.100079585077
102	54257	10.806015063835	0.0999105849
102	54814	10.906094648636	0.100079584801
102	55379	11.006070233408	0.099975584772
102	55936	11.106071818224	0.100001584816
102	56493	11.206021403152	0.099949584928
102	57050	11.306035988258	0.100014585106
102	57607	11.406076573603	0.100040585345
102	58164	11.506026159244	0.099949585641
102	58721	11.606027745239	0.100001585995
102	59278	11.706081331639	0.1000535864
102	59835	11.806017918499	0.09993658686
102	60392	11.906045505866	0.100027587367
102	60957	12.006086093788	0.100040587922
102	61514	12.106074682306	0.099988588518
102	62071	12.20610227146	0.100027589154
102	62628	12.306090861272	0.099988589812
102	63185	12.406040451756	0.099949590484
102	63742	12.50602904291	0.099988591154
102	64299	12.606069634712	0.100040591802
102	64856	12.706045227127	0.099975592415
102	65413	12.806098820104	0.100053592977
102	65970	12.90603541358	0.099936593476
102	66535	13.00606300748	0.1000275939
102	67092	13.106064601731	0.100001594251
102	67649	13.206040196251	0.09997559452
102	68206	13.306093790963	0.100053594712
102	68763	13.406030385788	0.099936594825
102	69320	13.506005980651	0.099975594863
102	69877	13.606020575479	0.100014594828
102	70440	13.706061170204	0.100040594725
102	70997	13.806023764756	0.099962594552
102	71554	13.906064359078	0.100040594322
102	72119	14.006039953108	0.09997559403
102	72676	14.106080546791	0.100040593683
102	73233	14.20609514007	0.100014593279
102	73790	14.306031732895	0.099936592825
102	74347	14.406020325216	0.099988592321
102	74904	14.506034916982	0.100014591766
102	75461	14.606036508146	0.100001591164
102	76018	14.706064098666	0.10002759052
102	76575	14.80601368851	0.099949589844
102	77132	14.906093277655	0.100079589145
102	77691	15.006068866101	0.099975588446
102	78248	15.106031453856	0.099962587755
102	78805	15.206020040945	0.099988587089
102	79362	15.306099627415	0.10007958647
102	79919	15.406088213319	0.099988585904
102	80476	15.506089798726	0.100001585407
102	81033	15.606065383706	0.09997558498
102	81590	15.706027968334	0.099962584628
102	82147	15.806016552687	0.099988584353
102	82704	15.906018136838	0.100001584151
102	83269	16.006032720864	0.100014584026
102	83826	16.106008304835	0.099975583971
102	84383	16.206009888818	0.100001583983
102	84940	16.306050472877	0.100040584059
102	85497	16.406013057073	0.099962584196
102	86054	16.506014641467	0.100001584394
102	86611	16.606029226111	0.100014584644
102	87168	16.706017811059	0.099988584948
102	87725	16.806058396358	0.100040585299
102	88282	16.906007982063	0.099949585705
102	88847	17.006022568219	0.100014586156
102	89404	17.106037154871	0.100014586652
102	89961	17.206103742058	0.100066587187
102	90518	17.306105329811	0.100001587753
102	91075	17.406080918144	0.099975588333
102	91632	17.506056507063	0.099975588919
102	92195	17.606045096547	0.099988589484
102	92752	17.706007686572	0.099962590025
102	93309	17.806035277088	0.100027590516
102	93866	17.906062868035	0.100027590947
102	94431	18.006038459345	0.09997559131
102	94988	18.106027050945	0.0999885916
102	95545	18.206106642759	0.100079591814
102	96102	18.306043234707	0.099936591948
102	96659	18.406018826714	0.099975592007
102	97216	18.506046418703	0.100027591989
102	97773	18.606048010603	0.1000015919
102	98330	18.706023602346	0.099975591743
102	98887	18.806090193867	0.100066591521
102	99444	18.906026785106	0.099936591239
102	100009	19.006067376002	0.100040590896
102	100566	19.106094966499	0.100027590497
102	101123	19.206070556545	0.099975590046
102	101680	19.306059146087	0.099988589542
102	102237	19.406086735078	0.100027588991
102	102794	19.506010323467	0.099923588389
102	103351	19.606011911209	0.100001587742
102	103908	19.706013498264	0.100001587055
102	104465	19.806093084601	0.100079586337
102	105022	19.906029670202	0.099936585601
102	105587	20.006044255066	0.100014584864
102	106144	20.106032839204	0.099988584138
102	106701	20.206060422645	0.100027583441
102	107258	20.306075005436	0.100014582791
102	107815	20.406063587634	0.099988582198
102	108372	20.506078169309	0.100014581675
102	108929	20.606105750533	0.100027581224
102	109486	20.706068331383	0.09996258085
102	110043	20.806082911934	0.100014580551
102	110594	20.906058492266	0.099975580332
102	111159	21.006021072451	0.099962580185
102	111716	21.106087652563	0.100066580112
102	112273	21.206102232671	0.100014580108
102	112830	21.306103812837	0.100001580166
102	113387	21.406040393123	0.099936580286
102	113944	21.506080973592	0.100040580469
102	114501	21.606030554294	0.099949580702
102	115058	21.706058135286	0.100027580992
102	115615	21.80608571662	0.100027581334
102	116172	21.906035298344	0.099949581724
102	116737	22.006010880509	0.099975582165
102	117294	22.106090463158	0.100079582649
102	117851	22.206092046331	0.100001583173
102	118414	22.306067630061	0.09997558373
102	118971	22.406108214363	0.100040584302
102	119528	22.506005799244	0.099897584881
102	120085	22.606059384689	0.100053585445
102	120642	22.706086970668	0.100027585979
102	121199	22.806101557136	0.100014586468
102	121756	22.906025144033	0.099923586897
102	122321	23.006052731294	0.100027587261
102	122878	23.106028318844	0.09997558755
102	123435	23.206081906608	0.100053587764
102	123992	23.306083494507	0.100001587899
102	124549	23.406072082468	0.099988587961
102	125106	23.506073670417	0.100001587949
102	125663	23.606062258278	0.099988587861
102	126220	23.706037845987	0.099975587709
102	126777	23.806039433479	0.100001587492
102	127334	23.906093020691	0.100053587212
102	127899	24.006055607566	0.099962586875
102	128456	24.106044194049	0.099988586483
102	129013	24.20605878009	0.100014586041
102	129570	24.306034365632	0.099975585542
102	130127	24.406087950629	0.100053584997
102	130684	24.506089535034	0.100001584405
102	131241	24.606091118799	0.100001583765
102	131798	24.706053701887	0.099962583088
102	132355	24.806068284268	0.100014582381
102	132912	24.906095865921	0.100027581653
102	133477	25.006071446849	0.099975580928
102	134034	25.106008027063	0.099936580214
102	134591	25.206035606591	0.100027579528
102	135148	25.306076185481	0.10004057889
102	135705	25.406064763793	0.099988578312
102	136262	25.506014341594	0.099949577801
102	136819	25.606093918958	0.100079577364
102	137376	25.706056495962	0.099962577004
102	137927	25.806032072685	0.099975576723
102	138484	25.906098649202	0.100066576517
102	139049	26.006087225591	0.099988576389
102	139606	26.10607580192	0.099988576329
102	140163	26.20601237826	0.09993657634
102	140720	26.306026954676	0.100014576416
102	141277	26.406080531231	0.100053576555
102	141834	26.506095107984	0.100014576753
102	142391	26.606018684989	0.099923577005
102	142948	26.706098262299	0.10007957731
102	143505	26.806021839969	0.09992357767
102	144062	26.906075418046	0.100053578077
102	144627	27.006024996583	0.099949578537
102	145184	27.10610457562	0.100079579037
102	145741	27.206028155205	0.099923579585
102	146298	27.306068735364	0.100040580159
102	146855	27.406018316114	0.09994958075
102	147418	27.506071897463	0.100053581349
102	147975	27.606060479396	0.099988581933
102	148532	27.706101061883	0.100040582487
102	149089	27.806011644879	0.099910582996
102	149646	27.906065228325	0.100053583446
102	150211	28.006105812155	0.10004058383
102	150768	28.106107396294	0.100001584139
102	151325	28.206004980669	0.099897584375
102	151882	28.306071565201	0.100066584532
102	152439	28.406073149814	0.100001584613
102	152996	28.506100734435	0.100027584621
102	153553	28.606076318994	0.099975584559
102	154110	28.70601290342	0.099936584426
102	154667	28.80604048765	0.10002758423
102	155224	28.906094071623	0.100053583973
102	155789	29.006069655281	0.099975583658
102	156346	29.10605823857	0.099988583289
102	156903	29.206046821437	0.099988582867
102	157460	29.30600940383	0.099962582393
102	158017	29.4060629857	0.10005358187
102	158574	29.506051566997	0.099988581297
102	159131	29.60602714768	0.099975580683
102	159688	29.706028727708	0.100001580028
102	160245	29.806017307049	0.099988579341
102	160802	29.906031885687	0.100014578638
102	161367	30.006098463622	0.100066577935
102	161924	30.106009040863	0.099910577241
102	162481	30.206075617443	0.10006657658
102	163038	30.306103193404	0.100027575961
102	163595	30.406065768799	0.099962575395
102	164146	30.506041343688	0.099975574889
102	164703	30.606029918129	0.099988574441
102	165260	30.706044492178	0.100014574049
102	165817	30.80600706589	0.099962573712
102	166374	30.906073639312	0.100066573422
102	166939	31.006062212487	0.099988573175
102	167496	31.106024785445	0.099962572958
102	168053	31.206078358218	0.100053572773
102	168610	31.306066930824	0.099988572606
102	169167	31.406029503278	0.099962572454
102	169724	31.506083075593	0.100053572315
102	170281	31.606019647772	0.099936572179
102	170838	31.706047219817	0.100027572045
102	171395	31.806061791728	0.100014571911
102	171952	31.9060113635	0.099949571772
102	172517	32.006038935128	0.100027571628
102	173074	32.106053506608	0.10001457148
102	173631	32.206081077927	0.100027571319
102	174188	32.306056649062	0.099975571135
102	174745	32.40604521998	0.099988570918
102	175302	32.506020790638	0.099975570658
102	175859	32.606061360969	0.100040570331
102	176416	32.706101930899	0.10004056993
102	176973	32.806012500333	0.099910569434
102	177530	32.906066069166	0.100053568833
102	178095	33.006028637287	0.099962568121
102	178652	33.106069204576	0.100040567289
102	179209	33.206018770914	0.099949566338
102	179766	33.306020336181	0.100001565267
102	180323	33.406060900259	0.100040564078
102	180880	33.506075463031	0.100014562772
102	181437	33.606038024386	0.099962561355
102	181994	33.706052584214	0.100014559828
102	182551	33.806067142414	0.1000145582
102	183108	33.906094698881	0.100027556467
102	183673	34.006044253522	0.099949554641
102	184230	34.106006806239	0.099962552717
102	184787	34.206060356943	0.100053550704
102	185344	34.306061905547	0.100001548604
102	185901	34.406024451962	0.099962546415
102	186458	34.506051996104	0.100027544142
102	187015	34.606105537892	0.100053541788
102	187572	34.70610707725	0.100001539358
102	188129	34.80608261411	0.09997553686
102	188686	34.906006148424	0.099923534314
102	189251	35.006033680151	0.100027531727
102	189808	35.10602220927	0.099988529119
102	190365	35.206088735779	0.100066526509
102	190922	35.306077259689	0.09998852391
102	191479	35.406039781028	0.099962521339
102	192036	35.50605429983	0.100014518802
102	192593	35.606042816136	0.099988516306
102	193150	35.706083329991	0.100040513855
102	193707	35.806084841442	0.100001511451
102	194264	35.906034350532	0.09994950909
102	194829	36.006035857308	0.100001506776
102	195386	36.106089361807	0.100053504499
102	195943	36.206090864072	0.100001502265
102	196500	36.306053364138	0.099962500066
102	197057	36.406041862035	0.099988497897
102	197614	36.506043357794	0.100001495759
102	198171	36.60608385144	0.100040493646
102	198728	36.706033342998	0.099949491558
102	199285	36.806021832491	0.099988489493
102	199842	36.906101319942	0.100079487451
102	200407	37.006076805371	0.099975485429
102	200964	37.106065288797	0.099988483426
102	201521	37.206053770229	0.099988481432
102	202078	37.306029249674	0.099975479445
102	202635	37.406082727123	0.100053477449
102	203192	37.506084202551	0.100001475428
102	203749	37.606020675918	0.099936473367
102	204306	37.70606114717	0.100040471252
102	204863	37.806049616232	0.099988469062
102	205420	37.906090083021	0.100040466789
102	205985	38.006039547445	0.099949464424
102	206542	38.106106009404	0.100066461959
102	207099	38.206081468797	0.099975459393
102	207656	38.306095925522	0.100014456725
102	208213	38.406019379478	0.099923453956
102	208770	38.506085830565	0.100066451087
102	209327	38.606022278688	0.099936448123
102	209884	38.706101723755	0.100079445067
102	210441	38.806090165674	0.099988441919
102	210998	38.906052604365	0.099962438691
102	211563	39.006054039743	0.100001435378
102	212120	39.10606847173	0.100014431987
102	212677	39.206056900251	0.099988428521
102	213234	39.30600632523	0.099949424979
102	213791	39.406007746597	0.100001421367
102	214348	39.506100164279	0.100092417682
102	214905	39.606101578208	0.100001413929
102	215462	39.706024988324	0.099923410116
102	216019	39.806091394573	0.100066406249
102	216576	39.906014796918	0.099923402345
102	217141	40.006042195335	0.100027398417
102	217698	40.106017589812	0.099975394477
102	218255	40.206096980364	0.100079390552
102	218812	40.306059367012	0.099962386648
102	219369	40.406021749795	0.099962382783
102	219926	40.506075128762	0.100053378967
102	220483	40.606102503964	0.100027375202
102	221040	40.706012875459	0.099910371495
102	221597	40.806027243304	0.100014367845
102	222154	40.906028607556	0.100001364252
102	222719	41.006081968268	0.100053360712
102	223276	41.106005325495	0.099923357227
102	223833	41.206019679285	0.10001435379
102	224390	41.306021029685	0.1000013504
102	224947	41.406100376739	0.100079347054
102	225504	41.506010720485	0.099910343746
102	226061	41.606077060961	0.100066340476
102	226618	41.706104398201	0.10002733724
102	227175	41.806040732241	0.09993633404
102	227732	41.906068063109	0.100027330868
102	228297	42.006030390839	0.09996232773
102	228854	42.106057715459	0.10002732462
102	229411	42.206007036989	0.09994932153
102	229968	42.306060355444	0.100053318455
102	230525	42.406061670825	0.100001315381
102	231082	42.506036983119	0.099975312294
102	231639	42.606103292294	0.100066309175
102	232196	42.706026598306	0.099923306012
102	232753	42.806079901093	0.100053302787
102	233310	42.906016200578	0.099936299485
102	233875	43.006017496681	0.100001296103
102	234432	43.106018789308	0.100001292627
102	234989	43.206085078372	0.100066289064
102	235546	43.306021363777	0.099936285405
102	236103	43.406087645431	0.100066281654
102	236660	43.506010923246	0.099923277815
102	237217	43.606077197135	0.100066273889
102	237774	43.706013467015	0.09993626988
102	238331	43.806092732806	0.100079265791
102	238888	43.906015994433	0.099923261627
102	239453	44.006056251826	0.100040257393
102	240010	44.10608350491	0.100027253084
102	240567	44.206032753621	0.099949248711
102	241124	44.306098997895	0.100066244274
102	241681	44.406100237666	0.100001239771
102	242238	44.506062472872	0.099962235206
102	242795	44.606076703456	0.100014230584
102	243352	44.706090929366	0.10001422591
102	243909	44.806040150556	0.09994922119
102	244466	44.906067366996	0.10002721644
102	245031	45.006094578673	0.100027211677
102	245588	45.106056785584	0.099962206911
102	246145	45.206005987749	0.099949202165
102	246702	45.3060201852	0.100014197451
102	247259	45.406008377987	0.099988192787
102	247816	45.506100566161	0.100092188174
102	248373	45.606088749786	0.099988183625
102	248930	45.706102928929	0.100014179143
102	249487	45.806065103653	0.099962174724
102	250044	45.906040274024	0.099975170371
102	250609	46.006067440108	0.100027166084
102	251166	46.106042601962	0.099975161854
102	251723	46.206069759644	0.100027157682
102	252280	46.30603191321	0.099962153566
102	252837	46.406046062711	0.100014149501
102	253394	46.506047208194	0.100001145483
102	253951	46.606074349704	0.10002714151
102	254508	46.706010487284	0.09993613758
102	255065	46.806102620976	0.100092133692
102	255622	46.90601275082	0.099910129844
102	256187	47.006104876853	0.100092126033
102	256744	47.106040999113	0.09993612226
102	257301	47.206042117629	0.100001118516
102	257858	47.306056232424	0.100014114795
102	258415	47.406096343505	0.100040111081
