file 1439143 1512140145                                         
version 2
run SinusoidalPosInjectionAttack-58-20171201-15:55:19-86138
attr CACCSpacing 20
attr attackAcc -30
attr attackPos 3
attr attackSpeed 150
attr attackStart 30
attr attacker 2
attr beaconInterval 0.1
attr configname SinusoidalPosInjectionAttack
attr controller 3
attr datetime 20171201-15:55:19
attr experiment SinusoidalPosInjectionAttack
attr fakeAcc "(2 == 4)"
attr fakePos "(2 == 2)"
attr fakeSpeed "(2 == 3)"
attr inifile omnetpp_58.ini
attr iterationvars "$attacker=2, $attackSpeed=150, $attackPos=3, $attackAcc=-30, $leaderSpeed=150, $controller=3, $CACCSpacing=20, $sController=\"CONSENSUS\", $attackStart=30, $0=15, $1=0.8, $nCars=8, $platoonSize=8, $nLanes=1, $beaconInterval=0.1, $priority=2, $packetSize=200, $ploegH=0.5, $leaderHeadway=1.2, $fakeSpeed=(2 == 3), $fakeAcc=(2 == 4), $fakePos=(2 == 2)"
attr iterationvarsf attacker=2,attackSpeed=150,attackPos=3,attackAcc=-30,leaderSpeed=150,controller=3,CACCSpacing=20,sController=CONSENSUS,attackStart=30,15,0.8,nCars=8,platoonSize=8,nLanes=1,beaconInterval=0.1,priority=2,packetSize=200,ploegH=0.5,leaderHeadway=1.2,fakeSpeed=(2_==_3),fakeAcc=(2_==_4),fakePos=(2_==_2)-
attr leaderHeadway 1.2
attr leaderSpeed 150
attr measurement "$attacker=2, $attackSpeed=150, $attackPos=3, $attackAcc=-30, $leaderSpeed=150, $controller=3, $CACCSpacing=20, $sController=\"CONSENSUS\", $attackStart=30, $0=15, $1=0.8, $nCars=8, $platoonSize=8, $nLanes=1, $beaconInterval=0.1, $priority=2, $packetSize=200, $ploegH=0.5, $leaderHeadway=1.2, $fakeSpeed=(2 == 3), $fakeAcc=(2 == 4), $fakePos=(2 == 2)"
attr nCars 8
attr nLanes 1
attr network scenario
attr packetSize 200
attr platoonSize 8
attr ploegH 0.5
attr priority 2
attr processid 86138
attr repetition 3
attr replication #3
attr resultdir results
attr runnumber 58
attr sController "\"CONSENSUS\""
attr seedset 3
param **.coreDebug false
param **.debug false
param **.headway 0.1s
param **.numberOfCars 8
param **.numberOfCarsPerPlatoon 8
param **.numberOfLanes 1
param **.numericController 3
param **.traffic.nCars 8
param **.traffic.nLanes 1
param **.traffic.platoonInsertDistance 15m
param **.traffic.platoonInsertHeadway 0.8s
param **.traffic.platoonInsertSpeed 150kmph
param **.traffic.platoonInsertTime "1 s"
param **.traffic.platoonLeaderHeadway 1.2s
param **.traffic.platoonSize 8
param **.traffic.platooningVType "\"vtypeauto\""
param **.traffic_type "\"PlatoonsTrafficManager\""
param *.**.nic.mac1609_4.bitrate 6Mbps
param *.**.nic.mac1609_4.txPower 100mW
param *.**.nic.mac1609_4.useServiceChannel false
param *.**.nic.phy80211p.analogueModels "xmldoc(\"config.xml\")"
param *.**.nic.phy80211p.decider "xmldoc(\"config.xml\")"
param *.**.nic.phy80211p.maxTXPower 100mW
param *.**.nic.phy80211p.sensitivity -94dBm
param *.**.nic.phy80211p.thermalNoise -95dBm
param *.**.nic.phy80211p.usePropagationDelay true
param *.**.nic.phy80211p.useThermalNoise true
param *.annotations.draw false
param *.connectionManager.alpha 2.0
param *.connectionManager.carrierFrequency "5.890e9 Hz"
param *.connectionManager.pMax 100mW
param *.connectionManager.sat -94dBm
param *.connectionManager.sendDirect true
param *.manager.autoShutdown true
param *.manager.commandLine "\"sumo --remote-port $port --seed $seed --configuration-file $configFile\""
param *.manager.configFile "\"./sumocfg/freeway.sumo.cfg\""
param *.manager.host "\"localhost\""
param *.manager.margin 25
param *.manager.moduleDisplayString "\"\""
param *.manager.moduleName "\"node\""
param *.manager.moduleType "\"Car\""
param *.manager.updateInterval 0.01s
param *.node[*].appl.attackStart 30s
param *.node[*].appl.attackerType 2
param *.node[*].appl.simulationDuration "60 s"
param *.node[*].appl_type "\"SimplePlatooningApp\""
param *.node[*].helper.nCars 8
param *.node[*].helper.nLanes 1
param *.node[*].helper.platoonSize 8
param *.node[*].helper_type "\"PositionHelper\""
param *.node[*].mobility.x 0
param *.node[*].mobility.y 0
param *.node[*].mobility.z 1.895
param *.node[*].prot.attackStart 30s
param *.node[*].prot.attackerType 2
param *.node[*].prot.attackingNode 3
param *.node[*].prot.beaconingInterval 0.1s
param *.node[*].prot.fakeAcc "(2 == 4)"
param *.node[*].prot.fakePos "(2 == 2)"
param *.node[*].prot.fakeSpeed "(2 == 3)"
param *.node[*].prot.maliciousAcc "-30 mpss"
param *.node[*].prot.maliciousSpeed 150kmph
param *.node[*].prot.packetSize 200
param *.node[*].prot.priority 2
param *.node[*].prot.shiftX "3 m"
param *.node[*].prot.useControllerAcceleration true
param *.node[*].protocol_type "\"SimplePlatooningBeaconing\""
param *.node[*].scenario.accHeadway 0.1s
param *.node[*].scenario.caccC1 0.5
param *.node[*].scenario.caccOmegaN "0.2 Hz"
param *.node[*].scenario.caccSpacing 20m
param *.node[*].scenario.caccXi 1
param *.node[*].scenario.controller "\"CONSENSUS\""
param *.node[*].scenario.engineTau "0.5 s"
param *.node[*].scenario.leaderHeadway 1.2s
param *.node[*].scenario.leaderSpeed 150kmph
param *.node[*].scenario.ploegH 0.5s
param *.node[*].scenario.ploegKd 0.7
param *.node[*].scenario.ploegKp 0.2
param *.node[*].scenario.useRealisticEngine false
param *.node[*].scenario_type "\"SinusoidalScenario\""
param *.node[*].unicast.packetLossRate 0
param *.obstacles.debug false
param *.playgroundSizeX 65000m
param *.playgroundSizeY 25000m
param *.playgroundSizeZ 50m
param *.world.use2D false
param *.world.useTorus false

vector 0  scenario.node[0].appl  distance  ETV
vector 1  scenario.node[0].appl  relativeSpeed  ETV
vector 2  scenario.node[0].appl  nodeId  ETV
vector 6  scenario.node[0].appl  acceleration  ETV
vector 7  scenario.node[0].appl  controllerAcceleration  ETV
vector 3  scenario.node[0].appl  speed  ETV
vector 4  scenario.node[0].appl  posx  ETV
vector 5  scenario.node[0].appl  posy  ETV
vector 22  scenario.node[1].appl  distance  ETV
vector 23  scenario.node[1].appl  relativeSpeed  ETV
vector 24  scenario.node[1].appl  nodeId  ETV
vector 28  scenario.node[1].appl  acceleration  ETV
vector 29  scenario.node[1].appl  controllerAcceleration  ETV
vector 25  scenario.node[1].appl  speed  ETV
vector 26  scenario.node[1].appl  posx  ETV
vector 27  scenario.node[1].appl  posy  ETV
vector 44  scenario.node[2].appl  distance  ETV
vector 45  scenario.node[2].appl  relativeSpeed  ETV
vector 46  scenario.node[2].appl  nodeId  ETV
vector 50  scenario.node[2].appl  acceleration  ETV
vector 51  scenario.node[2].appl  controllerAcceleration  ETV
vector 47  scenario.node[2].appl  speed  ETV
vector 48  scenario.node[2].appl  posx  ETV
vector 49  scenario.node[2].appl  posy  ETV
vector 66  scenario.node[3].appl  distance  ETV
vector 67  scenario.node[3].appl  relativeSpeed  ETV
vector 68  scenario.node[3].appl  nodeId  ETV
vector 72  scenario.node[3].appl  acceleration  ETV
vector 73  scenario.node[3].appl  controllerAcceleration  ETV
vector 69  scenario.node[3].appl  speed  ETV
vector 70  scenario.node[3].appl  posx  ETV
vector 71  scenario.node[3].appl  posy  ETV
vector 88  scenario.node[4].appl  distance  ETV
vector 89  scenario.node[4].appl  relativeSpeed  ETV
vector 90  scenario.node[4].appl  nodeId  ETV
vector 94  scenario.node[4].appl  acceleration  ETV
vector 95  scenario.node[4].appl  controllerAcceleration  ETV
vector 91  scenario.node[4].appl  speed  ETV
vector 92  scenario.node[4].appl  posx  ETV
vector 93  scenario.node[4].appl  posy  ETV
vector 110  scenario.node[5].appl  distance  ETV
vector 111  scenario.node[5].appl  relativeSpeed  ETV
vector 112  scenario.node[5].appl  nodeId  ETV
vector 116  scenario.node[5].appl  acceleration  ETV
vector 117  scenario.node[5].appl  controllerAcceleration  ETV
vector 113  scenario.node[5].appl  speed  ETV
vector 114  scenario.node[5].appl  posx  ETV
vector 115  scenario.node[5].appl  posy  ETV
vector 132  scenario.node[6].appl  distance  ETV
vector 133  scenario.node[6].appl  relativeSpeed  ETV
vector 134  scenario.node[6].appl  nodeId  ETV
vector 138  scenario.node[6].appl  acceleration  ETV
vector 139  scenario.node[6].appl  controllerAcceleration  ETV
vector 135  scenario.node[6].appl  speed  ETV
vector 136  scenario.node[6].appl  posx  ETV
vector 137  scenario.node[6].appl  posy  ETV
vector 154  scenario.node[7].appl  distance  ETV
vector 155  scenario.node[7].appl  relativeSpeed  ETV
vector 156  scenario.node[7].appl  nodeId  ETV
vector 160  scenario.node[7].appl  acceleration  ETV
vector 161  scenario.node[7].appl  controllerAcceleration  ETV
vector 157  scenario.node[7].appl  speed  ETV
vector 158  scenario.node[7].appl  posx  ETV
vector 159  scenario.node[7].appl  posy  ETV
vector 35  scenario.node[1].prot  leaderDelay  ETV
vector 33  scenario.node[1].prot  leaderDelayId  ETV
vector 36  scenario.node[1].prot  frontDelay  ETV
vector 34  scenario.node[1].prot  frontDelayId  ETV
vector 57  scenario.node[2].prot  leaderDelay  ETV
vector 55  scenario.node[2].prot  leaderDelayId  ETV
vector 79  scenario.node[3].prot  leaderDelay  ETV
vector 77  scenario.node[3].prot  leaderDelayId  ETV
vector 101  scenario.node[4].prot  leaderDelay  ETV
vector 99  scenario.node[4].prot  leaderDelayId  ETV
vector 123  scenario.node[5].prot  leaderDelay  ETV
vector 121  scenario.node[5].prot  leaderDelayId  ETV
vector 145  scenario.node[6].prot  leaderDelay  ETV
vector 143  scenario.node[6].prot  leaderDelayId  ETV
vector 167  scenario.node[7].prot  leaderDelay  ETV
vector 165  scenario.node[7].prot  leaderDelayId  ETV
vector 168  scenario.node[7].prot  frontDelay  ETV
vector 166  scenario.node[7].prot  frontDelayId  ETV
vector 58  scenario.node[2].prot  frontDelay  ETV
vector 56  scenario.node[2].prot  frontDelayId  ETV
vector 124  scenario.node[5].prot  frontDelay  ETV
vector 122  scenario.node[5].prot  frontDelayId  ETV
vector 80  scenario.node[3].prot  frontDelay  ETV
vector 78  scenario.node[3].prot  frontDelayId  ETV
vector 146  scenario.node[6].prot  frontDelay  ETV
vector 144  scenario.node[6].prot  frontDelayId  ETV
vector 102  scenario.node[4].prot  frontDelay  ETV
vector 100  scenario.node[4].prot  frontDelayId  ETV
vector 8  scenario.node[0].prot  nodeId  ETV
vector 9  scenario.node[0].prot  busyTime  ETV
vector 10  scenario.node[0].prot  collisions  ETV
vector 30  scenario.node[1].prot  nodeId  ETV
vector 31  scenario.node[1].prot  busyTime  ETV
vector 32  scenario.node[1].prot  collisions  ETV
vector 52  scenario.node[2].prot  nodeId  ETV
vector 53  scenario.node[2].prot  busyTime  ETV
vector 54  scenario.node[2].prot  collisions  ETV
vector 74  scenario.node[3].prot  nodeId  ETV
vector 75  scenario.node[3].prot  busyTime  ETV
vector 76  scenario.node[3].prot  collisions  ETV
vector 96  scenario.node[4].prot  nodeId  ETV
vector 97  scenario.node[4].prot  busyTime  ETV
vector 98  scenario.node[4].prot  collisions  ETV
vector 118  scenario.node[5].prot  nodeId  ETV
vector 119  scenario.node[5].prot  busyTime  ETV
vector 120  scenario.node[5].prot  collisions  ETV
vector 140  scenario.node[6].prot  nodeId  ETV
vector 141  scenario.node[6].prot  busyTime  ETV
vector 142  scenario.node[6].prot  collisions  ETV
vector 162  scenario.node[7].prot  nodeId  ETV
vector 163  scenario.node[7].prot  busyTime  ETV
vector 164  scenario.node[7].prot  collisions  ETV
7	11121 11853 232 280765 1.11 51.41 504 -1.5 1.5 7.8219655157933 844.15269374685
6	22974 15890 232 280765 1.11 51.41 504 -1.4722746794739 1.4513434107982 0.041451556987226 566.36549932822
5	38864 10296 232 280765 1.11 51.41 504 36.55 36.55 18421.2 673294.86
4	49160 15272 232 280765 1.11 51.41 504 409.84595756491 2508.7033913795 736455.40878475 1261828254.1551
3	64432 15264 232 280765 1.11 51.41 504 40.376854770771 43.631381416411 21030.232209742 877901.45537506
1	79696 8280 232 280765 1.11 51.41 504 0 0 0 0
0	87976 8784 232 280765 1.11 51.41 504 -1 -1 -504 504
2	96760 8280 232 280765 1.11 51.41 504 0 0 0 0
10	105040 723 5056 278348 2 51 50 0 0 0 0
9	105763 1314 5056 278348 2 51 50 0.022760199137 0.026256177255 1.309008151254 0.034281982374867
8	107077 673 5056 278348 2 51 50 0 0 0 0
29	107750 16336 233 280766 1.11 51.41 504 -1.9952324547101 1.98893437345 -6.7422151486961 973.51741441915
28	124086 16368 233 280766 1.11 51.41 504 -1.7216163296155 1.7126010809079 -11.525943255266 667.37012135887
27	140454 10800 233 280766 1.11 51.41 504 36.55 36.55 18421.2 673294.86
26	151254 15782 233 280766 1.11 51.41 504 357.51261405945 2456.7788971252 710055.05904373 1186120323.5377
25	167036 15780 233 280766 1.11 51.41 504 40.275745903769 43.622330245001 21033.91907532 878286.13680985
23	182816 16522 233 280766 1.11 51.41 504 -1.222742083344 1.211576110581 -3.6872800931684 365.2912141111
22	199338 15787 233 280766 1.11 51.41 504 47.287918694326 49.788175324961 24384.423478333 1180015.2990376
24	215125 8784 233 280766 1.11 51.41 504 1 1 504 504
36	223909 20205 836 280813 1.26956171326 51.469565434272 503 0.09998891305 0.100002558057 50.300006259707 5.0300012648374
35	244114 20205 836 280813 1.26956171326 51.469565434272 503 0.09998891305 0.100002558057 50.300006259707 5.0300012648374
34	264319 13727 836 280813 1.26956171326 51.469565434272 503 1 1 503 503
33	278046 13727 836 280813 1.26956171326 51.469565434272 503 1 1 503 503
32	291773 723 5057 278349 2 51 50 0 0 0 0
31	292496 1368 5057 278349 2 51 50 0.022760373702 0.026256173442 1.309008323058 0.034281990176085
30	293864 723 5057 278349 2 51 50 1 1 50 50
51	294587 16364 234 280767 1.11 51.41 504 -1.4546519030185 1.4433258780004 -4.4884907112601 534.67398254069
50	310951 16457 234 280767 1.11 51.41 504 -1.2932235277297 1.2700811321338 -8.3366134374714 374.58945104497
49	327408 10800 234 280767 1.11 51.41 504 36.55 36.55 18421.2 673294.86
48	338208 15766 234 280767 1.11 51.41 504 305.17930107117 2404.5634038029 683645.08485625 1113121440.3303
47	353974 15780 234 280767 1.11 51.41 504 40.630003534814 43.289365679684 21035.210396936 878198.07397995
45	369754 16716 234 280767 1.11 51.41 504 -0.38765529323005 0.36037447174621 -1.176062183121 28.808018271937
44	386470 15784 234 280767 1.11 51.41 504 48.050171307085 48.985925020644 24394.000013911 1180713.0446884
46	402254 8784 234 280767 1.11 51.41 504 2 2 1008 2016
58	411038 20165 1046 280466 1.299194982607 51.399183717781 502 0.099988893407 0.100002558431 50.199991273869 5.0199982677806
57	431203 20212 842 280819 1.269561887825 51.469565608391 503 0.099988912934 0.100002558159 50.300006259261 5.0300012647482
56	451415 13705 1046 280466 1.299194982607 51.399183717781 502 2 2 1004 2008
55	465120 13722 842 280819 1.269561887825 51.469565608391 503 2 2 1006 2012
54	478842 723 5058 278350 2 51 50 0 0 0 0
53	479565 1363 5058 278350 2 51 50 0.022760548267 0.026256173888 1.309008497719 0.034281998127542
52	480928 723 5058 278350 2 51 50 2 2 100 200
73	481651 16370 235 280768 1.11 51.41 504 -1.5632964487638 1.5537924155965 -4.3021794562873 610.72416303894
72	498021 16441 235 280768 1.11 51.41 504 -1.3303287327574 1.3198335986601 -8.3972673289246 404.78790775459
71	514462 10800 235 280768 1.11 51.41 504 36.55 36.55 18421.2 673294.86
70	525262 15785 235 280768 1.11 51.41 504 252.84595756531 2352.1756939867 657237.13265413 1042890612.5552
69	541047 15791 235 280768 1.11 51.41 504 40.582530156245 43.232131815296 21034.664061449 878169.20237107
67	556838 17147 235 280768 1.11 51.41 504 -0.10375644506716 0.12654766470038 0.62970162088801 1.5946538169416
66	573985 15792 235 280768 1.11 51.41 504 48.278862202736 48.657122419685 24391.94127541 1180494.4838487
68	589777 8784 235 280768 1.11 51.41 504 3 3 1512 4536
80	598561 20200 1180 280601 1.300203855433 51.400205270223 502 0.099988896027 0.100002558412 50.199990953485 5.0199982037015
79	618761 20244 848 280825 1.269562062391 51.469565783139 503 0.099988912949 0.100002558141 50.300006259443 5.0300012647846
78	639005 13734 1180 280601 1.300203855433 51.400205270223 502 3 3 1506 4518
77	652739 13754 848 280825 1.269562062391 51.469565783139 503 3 3 1509 4527
76	666493 723 5059 278351 2 51 50 0 0 0 0
75	667216 1361 5059 278351 2 51 50 0.022759373702 0.026256173766 1.309007323008 0.034281944653775
74	668577 723 5059 278351 2 51 50 3 3 150 450
117	669300 16891 237 280770 1.11 51.41 504 -1.4359256807138 1.7002062310168 30.01101256826 525.42219521559
116	686191 16978 237 280770 1.11 51.41 504 -1.2576586734404 1.470481743236 16.525947762968 366.27214255247
115	703169 11304 237 280770 1.11 51.41 504 36.55 36.55 18421.2 673294.86
114	714473 16288 237 280770 1.11 51.41 504 148.17929344177 2281.9776630566 607038.56031215 921391465.10066
113	730761 16290 237 280770 1.11 51.41 504 40.662925558298 45.122049036026 21380.2249377 907631.79528057
111	747051 17326 237 280770 1.11 51.41 504 -0.045360563862076 1.3348000035958 136.81967713815 115.28945278307
110	764377 16303 237 280770 1.11 51.41 504 48.333333054474 62.020614381645 26157.396014202 1369931.5845592
112	780680 9288 237 280770 1.11 51.41 504 5 5 2520 12600
124	789968 20703 1112 280538 1.299595506303 51.39959712685 502 0.099988906064 0.100002558446 50.200004159242 5.0200008447446
123	810671 20751 860 280837 1.269562411521 51.469566016876 503 0.099988912107 0.100002558175 50.30000614405 5.030001241706
122	831422 14225 1112 280538 1.299595506303 51.39959712685 502 5 5 2510 12550
121	845647 14262 860 280837 1.269562411521 51.469566016876 503 5 5 2515 12575
120	859909 773 5061 278353 2 51 50 0 0 0 0
119	860682 1414 5061 278353 2 51 50 0.022759024571 0.02625618196 1.309007085325 0.034281934612876
118	862096 773 5061 278353 2 51 50 5 5 250 1250
139	862869 16907 238 280771 1.11 51.41 504 -1.4414067085996 1.6024800457439 10.876950501836 525.38316974391
138	879776 16992 238 280771 1.11 51.41 504 -1.2276841333929 1.4113591238193 13.446232044304 349.17707004971
137	896768 11304 238 280771 1.11 51.41 504 36.55 36.55 18421.2 673294.86
136	908072 16275 238 280771 1.11 51.41 504 95.845957565308 2218.295543188 579459.36471817 854591653.504
135	924347 16292 238 280771 1.11 51.41 504 40.694522606702 44.698033442325 21266.634615528 897826.69630584
133	940639 17414 238 280771 1.11 51.41 504 -0.03290967664217 0.89259898156583 113.42506269462 74.39155631532
132	958053 16287 238 280771 1.11 51.41 504 48.333334638479 59.676146263714 25560.923787532 1303285.1604386
134	974340 9288 238 280771 1.11 51.41 504 6 6 3024 18144
146	983628 20698 1249 280664 1.305609379129 51.405610716957 502 0.099988904347 0.100002558454 50.200003876523 5.0200007882011
145	1004326 20757 866 280843 1.269562586086 51.469566229346 503 0.099988912209 0.100002558184 50.300006181955 5.030001249287
144	1025083 14217 1249 280664 1.305609379129 51.405610716957 502 6 6 3012 18072
143	1039300 14260 866 280843 1.269562586086 51.469566229346 503 6 6 3018 18108
142	1053560 773 5062 278354 2 51 50 0 0 0 0
141	1054333 1418 5062 278354 2 51 50 0.022759850006 0.026256180719 1.309007873325 0.034281970220427
140	1055751 773 5062 278354 2 51 50 6 6 300 1800
161	1056524 16889 239 280772 1.11 51.41 504 -1.3694254265375 1.5378443805765 18.414526580708 476.17773541429
160	1073413 16997 239 280772 1.11 51.41 504 -1.1973871254234 1.3374246876587 9.7726523596407 331.59693946534
159	1090410 11304 239 280772 1.11 51.41 504 36.55 36.55 18421.2 673294.86
158	1101714 16287 239 280772 1.11 51.41 504 43.512624549866 2157.0772496413 552333.76353443 792465799.48774
157	1118001 16294 239 280772 1.11 51.41 504 40.724514657929 44.167596047671 21177.649997646 890196.09147581
155	1134295 17401 239 280772 1.11 51.41 504 -0.033122122559902 0.691938869282 88.850155561949 49.071919970645
154	1151696 16286 239 280772 1.11 51.41 504 48.333333015442 57.210589345016 25107.821491386 1254139.2472913
156	1167982 9288 239 280772 1.11 51.41 504 7 7 3528 24696
168	1177270 20688 980 280394 1.292099109781 51.3921009521 502 0.099988903439 0.100002558179 50.199991381014 5.0199982892052
167	1197958 20748 872 280849 1.269562760651 51.469566433613 503 0.099988912341 0.100002558192 50.300006211657 5.0300012552274
166	1218706 14227 980 280394 1.292099109781 51.3921009521 502 7 7 3514 24598
165	1232933 14259 872 280849 1.269562760651 51.469566433613 503 7 7 3521 24647
164	1247192 773 5063 278355 2 51 50 0 0 0 0
163	1247965 1415 5063 278355 2 51 50 0.022759675441 0.026256179137 1.309007669668 0.034281960746976
162	1249380 773 5063 278355 2 51 50 7 7 350 2450
88	1250153 15790 236 280919 1.11 51.48 505 0 48.564908756494 20016.087545307 895582.92052964
89	1265943 16875 236 280919 1.11 51.48 505 -2.7696063152965 0.053887700787094 -485.2379524232 1213.2789025325
90	1282818 8802 236 280919 1.11 51.48 505 4 4 2020 8080
91	1291620 15822 236 280919 1.11 51.48 505 40.638439060618 45.453964505589 21560.82700147 921459.00414669
92	1307442 15808 236 280919 1.11 51.48 505 200.51262931824 2351.0536711958 637565.75011709 999023769.15856
93	1323250 10822 236 280919 1.11 51.48 505 36.55 36.55 18457.75 674630.7625
94	1334072 16475 236 280919 1.11 51.48 505 -1.2928256573161 1.9525141908908 19.468741479238 414.78137775939
95	1350547 16390 236 280919 1.11 51.48 505 -1.5670776538496 2.2126359098657 12.003537509097 618.14855271613
96	1366937 723 5060 278352 2 51 50 4 4 200 800
97	1367660 1367 5060 278352 2 51 50 0.022760199137 0.026256182946 1.309008305226 0.034281990458262
98	1369027 723 5060 278352 2 51 50 0 0 0 0
99	1369750 13751 854 280831 1.269562236956 51.469565796599 503 4 4 2012 8048
100	1383501 14213 1312 280727 1.306022728259 51.406036752795 502 4 4 2008 8032
101	1397714 20749 854 280831 1.269562236956 51.469565796599 503 0.099988912026 0.100002558158 50.300006098338 5.0300012325636
102	1418463 20680 1312 280727 1.306022728259 51.406036752795 502 0.099898533062 0.100093538695 50.199951563231 5.01999131632
