file 1008795 1512140838                                         
version 2
run SinusoidalPosInjectionAttack-199-20171201-16:06:59-37043
attr CACCSpacing 20
attr attackAcc -30
attr attackPos 9
attr attackSpeed 150
attr attackStart 30
attr attacker 2
attr beaconInterval 0.1
attr configname SinusoidalPosInjectionAttack
attr controller 3
attr datetime 20171201-16:06:59
attr experiment SinusoidalPosInjectionAttack
attr fakeAcc "(2 == 4)"
attr fakePos "(2 == 2)"
attr fakeSpeed "(2 == 3)"
attr inifile omnetpp_199.ini
attr iterationvars "$attacker=2, $attackSpeed=150, $attackPos=9, $attackAcc=-30, $leaderSpeed=50, $controller=3, $CACCSpacing=20, $sController=\"CONSENSUS\", $attackStart=30, $0=15, $1=0.8, $nCars=8, $platoonSize=8, $nLanes=1, $beaconInterval=0.1, $priority=2, $packetSize=200, $ploegH=0.5, $leaderHeadway=1.2, $fakeSpeed=(2 == 3), $fakeAcc=(2 == 4), $fakePos=(2 == 2)"
attr iterationvarsf attacker=2,attackSpeed=150,attackPos=9,attackAcc=-30,leaderSpeed=50,controller=3,CACCSpacing=20,sController=CONSENSUS,attackStart=30,15,0.8,nCars=8,platoonSize=8,nLanes=1,beaconInterval=0.1,priority=2,packetSize=200,ploegH=0.5,leaderHeadway=1.2,fakeSpeed=(2_==_3),fakeAcc=(2_==_4),fakePos=(2_==_2)-
attr leaderHeadway 1.2
attr leaderSpeed 50
attr measurement "$attacker=2, $attackSpeed=150, $attackPos=9, $attackAcc=-30, $leaderSpeed=50, $controller=3, $CACCSpacing=20, $sController=\"CONSENSUS\", $attackStart=30, $0=15, $1=0.8, $nCars=8, $platoonSize=8, $nLanes=1, $beaconInterval=0.1, $priority=2, $packetSize=200, $ploegH=0.5, $leaderHeadway=1.2, $fakeSpeed=(2 == 3), $fakeAcc=(2 == 4), $fakePos=(2 == 2)"
attr nCars 8
attr nLanes 1
attr network scenario
attr packetSize 200
attr platoonSize 8
attr ploegH 0.5
attr priority 2
attr processid 37043
attr repetition 4
attr replication #4
attr resultdir results
attr runnumber 199
attr sController "\"CONSENSUS\""
attr seedset 4
param **.coreDebug false
param **.debug false
param **.headway 0.1s
param **.numberOfCars 8
param **.numberOfCarsPerPlatoon 8
param **.numberOfLanes 1
param **.numericController 3
param **.traffic.nCars 8
param **.traffic.nLanes 1
param **.traffic.platoonInsertDistance 15m
param **.traffic.platoonInsertHeadway 0.8s
param **.traffic.platoonInsertSpeed 50kmph
param **.traffic.platoonInsertTime "1 s"
param **.traffic.platoonLeaderHeadway 1.2s
param **.traffic.platoonSize 8
param **.traffic.platooningVType "\"vtypeauto\""
param **.traffic_type "\"PlatoonsTrafficManager\""
param *.**.nic.mac1609_4.bitrate 6Mbps
param *.**.nic.mac1609_4.txPower 100mW
param *.**.nic.mac1609_4.useServiceChannel false
param *.**.nic.phy80211p.analogueModels "xmldoc(\"config.xml\")"
param *.**.nic.phy80211p.decider "xmldoc(\"config.xml\")"
param *.**.nic.phy80211p.maxTXPower 100mW
param *.**.nic.phy80211p.sensitivity -94dBm
param *.**.nic.phy80211p.thermalNoise -95dBm
param *.**.nic.phy80211p.usePropagationDelay true
param *.**.nic.phy80211p.useThermalNoise true
param *.annotations.draw false
param *.connectionManager.alpha 2.0
param *.connectionManager.carrierFrequency "5.890e9 Hz"
param *.connectionManager.pMax 100mW
param *.connectionManager.sat -94dBm
param *.connectionManager.sendDirect true
param *.manager.autoShutdown true
param *.manager.commandLine "\"sumo --remote-port $port --seed $seed --configuration-file $configFile\""
param *.manager.configFile "\"./sumocfg/freeway.sumo.cfg\""
param *.manager.host "\"localhost\""
param *.manager.margin 25
param *.manager.moduleDisplayString "\"\""
param *.manager.moduleName "\"node\""
param *.manager.moduleType "\"Car\""
param *.manager.updateInterval 0.01s
param *.node[*].appl.attackStart 30s
param *.node[*].appl.attackerType 2
param *.node[*].appl.simulationDuration "60 s"
param *.node[*].appl_type "\"SimplePlatooningApp\""
param *.node[*].helper.nCars 8
param *.node[*].helper.nLanes 1
param *.node[*].helper.platoonSize 8
param *.node[*].helper_type "\"PositionHelper\""
param *.node[*].mobility.x 0
param *.node[*].mobility.y 0
param *.node[*].mobility.z 1.895
param *.node[*].prot.attackStart 30s
param *.node[*].prot.attackerType 2
param *.node[*].prot.attackingNode 3
param *.node[*].prot.beaconingInterval 0.1s
param *.node[*].prot.fakeAcc "(2 == 4)"
param *.node[*].prot.fakePos "(2 == 2)"
param *.node[*].prot.fakeSpeed "(2 == 3)"
param *.node[*].prot.maliciousAcc "-30 mpss"
param *.node[*].prot.maliciousSpeed 150kmph
param *.node[*].prot.packetSize 200
param *.node[*].prot.priority 2
param *.node[*].prot.shiftX "9 m"
param *.node[*].prot.useControllerAcceleration true
param *.node[*].protocol_type "\"SimplePlatooningBeaconing\""
param *.node[*].scenario.accHeadway 0.1s
param *.node[*].scenario.caccC1 0.5
param *.node[*].scenario.caccOmegaN "0.2 Hz"
param *.node[*].scenario.caccSpacing 20m
param *.node[*].scenario.caccXi 1
param *.node[*].scenario.controller "\"CONSENSUS\""
param *.node[*].scenario.engineTau "0.5 s"
param *.node[*].scenario.leaderHeadway 1.2s
param *.node[*].scenario.leaderSpeed 50kmph
param *.node[*].scenario.ploegH 0.5s
param *.node[*].scenario.ploegKd 0.7
param *.node[*].scenario.ploegKp 0.2
param *.node[*].scenario.useRealisticEngine false
param *.node[*].scenario_type "\"SinusoidalScenario\""
param *.node[*].unicast.packetLossRate 0
param *.obstacles.debug false
param *.playgroundSizeX 65000m
param *.playgroundSizeY 25000m
param *.playgroundSizeZ 50m
param *.world.use2D false
param *.world.useTorus false

vector 0  scenario.node[0].appl  distance  ETV
vector 1  scenario.node[0].appl  relativeSpeed  ETV
vector 2  scenario.node[0].appl  nodeId  ETV
vector 6  scenario.node[0].appl  acceleration  ETV
vector 7  scenario.node[0].appl  controllerAcceleration  ETV
vector 3  scenario.node[0].appl  speed  ETV
vector 4  scenario.node[0].appl  posx  ETV
vector 5  scenario.node[0].appl  posy  ETV
vector 22  scenario.node[1].appl  distance  ETV
vector 23  scenario.node[1].appl  relativeSpeed  ETV
vector 24  scenario.node[1].appl  nodeId  ETV
vector 28  scenario.node[1].appl  acceleration  ETV
vector 29  scenario.node[1].appl  controllerAcceleration  ETV
vector 25  scenario.node[1].appl  speed  ETV
vector 26  scenario.node[1].appl  posx  ETV
vector 27  scenario.node[1].appl  posy  ETV
vector 44  scenario.node[2].appl  distance  ETV
vector 45  scenario.node[2].appl  relativeSpeed  ETV
vector 46  scenario.node[2].appl  nodeId  ETV
vector 50  scenario.node[2].appl  acceleration  ETV
vector 51  scenario.node[2].appl  controllerAcceleration  ETV
vector 47  scenario.node[2].appl  speed  ETV
vector 48  scenario.node[2].appl  posx  ETV
vector 49  scenario.node[2].appl  posy  ETV
vector 66  scenario.node[3].appl  distance  ETV
vector 67  scenario.node[3].appl  relativeSpeed  ETV
vector 68  scenario.node[3].appl  nodeId  ETV
vector 72  scenario.node[3].appl  acceleration  ETV
vector 73  scenario.node[3].appl  controllerAcceleration  ETV
vector 69  scenario.node[3].appl  speed  ETV
vector 70  scenario.node[3].appl  posx  ETV
vector 71  scenario.node[3].appl  posy  ETV
vector 88  scenario.node[4].appl  distance  ETV
vector 89  scenario.node[4].appl  relativeSpeed  ETV
vector 90  scenario.node[4].appl  nodeId  ETV
vector 94  scenario.node[4].appl  acceleration  ETV
vector 95  scenario.node[4].appl  controllerAcceleration  ETV
vector 91  scenario.node[4].appl  speed  ETV
vector 92  scenario.node[4].appl  posx  ETV
vector 93  scenario.node[4].appl  posy  ETV
vector 110  scenario.node[5].appl  distance  ETV
vector 111  scenario.node[5].appl  relativeSpeed  ETV
vector 112  scenario.node[5].appl  nodeId  ETV
vector 116  scenario.node[5].appl  acceleration  ETV
vector 117  scenario.node[5].appl  controllerAcceleration  ETV
vector 113  scenario.node[5].appl  speed  ETV
vector 114  scenario.node[5].appl  posx  ETV
vector 115  scenario.node[5].appl  posy  ETV
vector 132  scenario.node[6].appl  distance  ETV
vector 133  scenario.node[6].appl  relativeSpeed  ETV
vector 134  scenario.node[6].appl  nodeId  ETV
vector 138  scenario.node[6].appl  acceleration  ETV
vector 139  scenario.node[6].appl  controllerAcceleration  ETV
vector 135  scenario.node[6].appl  speed  ETV
vector 136  scenario.node[6].appl  posx  ETV
vector 137  scenario.node[6].appl  posy  ETV
vector 154  scenario.node[7].appl  distance  ETV
vector 155  scenario.node[7].appl  relativeSpeed  ETV
vector 156  scenario.node[7].appl  nodeId  ETV
vector 160  scenario.node[7].appl  acceleration  ETV
vector 161  scenario.node[7].appl  controllerAcceleration  ETV
vector 157  scenario.node[7].appl  speed  ETV
vector 158  scenario.node[7].appl  posx  ETV
vector 159  scenario.node[7].appl  posy  ETV
vector 102  scenario.node[4].prot  frontDelay  ETV
vector 100  scenario.node[4].prot  frontDelayId  ETV
vector 35  scenario.node[1].prot  leaderDelay  ETV
vector 33  scenario.node[1].prot  leaderDelayId  ETV
vector 36  scenario.node[1].prot  frontDelay  ETV
vector 34  scenario.node[1].prot  frontDelayId  ETV
vector 57  scenario.node[2].prot  leaderDelay  ETV
vector 55  scenario.node[2].prot  leaderDelayId  ETV
vector 79  scenario.node[3].prot  leaderDelay  ETV
vector 77  scenario.node[3].prot  leaderDelayId  ETV
vector 101  scenario.node[4].prot  leaderDelay  ETV
vector 99  scenario.node[4].prot  leaderDelayId  ETV
vector 123  scenario.node[5].prot  leaderDelay  ETV
vector 121  scenario.node[5].prot  leaderDelayId  ETV
vector 145  scenario.node[6].prot  leaderDelay  ETV
vector 143  scenario.node[6].prot  leaderDelayId  ETV
vector 167  scenario.node[7].prot  leaderDelay  ETV
vector 165  scenario.node[7].prot  leaderDelayId  ETV
vector 80  scenario.node[3].prot  frontDelay  ETV
vector 78  scenario.node[3].prot  frontDelayId  ETV
vector 146  scenario.node[6].prot  frontDelay  ETV
vector 144  scenario.node[6].prot  frontDelayId  ETV
vector 58  scenario.node[2].prot  frontDelay  ETV
vector 56  scenario.node[2].prot  frontDelayId  ETV
vector 124  scenario.node[5].prot  frontDelay  ETV
vector 122  scenario.node[5].prot  frontDelayId  ETV
vector 168  scenario.node[7].prot  frontDelay  ETV
vector 166  scenario.node[7].prot  frontDelayId  ETV
vector 8  scenario.node[0].prot  nodeId  ETV
vector 9  scenario.node[0].prot  busyTime  ETV
vector 10  scenario.node[0].prot  collisions  ETV
vector 30  scenario.node[1].prot  nodeId  ETV
vector 31  scenario.node[1].prot  busyTime  ETV
vector 32  scenario.node[1].prot  collisions  ETV
vector 52  scenario.node[2].prot  nodeId  ETV
vector 53  scenario.node[2].prot  busyTime  ETV
vector 54  scenario.node[2].prot  collisions  ETV
vector 74  scenario.node[3].prot  nodeId  ETV
vector 75  scenario.node[3].prot  busyTime  ETV
vector 76  scenario.node[3].prot  collisions  ETV
vector 96  scenario.node[4].prot  nodeId  ETV
vector 97  scenario.node[4].prot  busyTime  ETV
vector 98  scenario.node[4].prot  collisions  ETV
vector 118  scenario.node[5].prot  nodeId  ETV
vector 119  scenario.node[5].prot  busyTime  ETV
vector 120  scenario.node[5].prot  collisions  ETV
vector 140  scenario.node[6].prot  nodeId  ETV
vector 141  scenario.node[6].prot  busyTime  ETV
vector 142  scenario.node[6].prot  collisions  ETV
vector 162  scenario.node[7].prot  nodeId  ETV
vector 163  scenario.node[7].prot  busyTime  ETV
vector 164  scenario.node[7].prot  collisions  ETV
7	11118 8406 232 197652 1.11 36.51 355 -1.5 1.5 9.3220274660767 573.10883084302
6	19524 11140 232 197652 1.11 36.51 355 -1.472274679513 1.4513407705126 1.4444634117792 382.94541539017
5	30664 7167 232 197652 1.11 36.51 355 36.55 36.55 12975.25 474245.3875
4	37831 10682 232 197652 1.11 36.51 355 258.44186744677 753.13597141217 180164.1199415 98731465.861928
3	48513 10677 232 197652 1.11 36.51 355 12.59908680102 15.853603639796 4960.8700889433 69588.78286267
1	59190 5747 232 197652 1.11 36.51 355 0 0 0 0
0	64937 6102 232 197652 1.11 36.51 355 -1 -1 -355 355
2	71039 5747 232 197652 1.11 36.51 355 0 0 0 0
10	76786 499 5234 194856 2 36 35 0 0 0 0
9	77285 675 5234 194856 2 36 35 0.023625 0.02625 0.916125 0.023986265625
8	77960 464 5234 194856 2 36 35 0 0 0 0
29	78424 11467 233 197653 1.11 36.51 355 -1.9530783888987 1.9468310583169 -4.876547047675 622.16985590058
28	89891 11511 233 197653 1.11 36.51 355 -1.7217025705456 1.7126557090355 -10.47363100779 441.24858365567
27	101402 7522 233 197653 1.11 36.51 355 36.55 36.55 12975.25 474245.3875
26	108924 11037 233 197653 1.11 36.51 355 228.33075294495 723.31706840186 169450.62145057 88193365.542714
25	119961 11029 233 197653 1.11 36.51 355 12.498021105924 15.844541375 4963.3771938267 69708.725178723
23	130990 11594 233 197653 1.11 36.51 355 -1.2227053188028 1.2114286516314 -2.5215495175692 243.66959429457
22	142584 11025 233 197653 1.11 36.51 355 25.065833146464 27.565955015401 9293.5486330308 243469.3163662
24	153609 6102 233 197653 1.11 36.51 355 1 1 355 355
36	159711 14170 964 197828 1.241825013197 36.541822543656 354 0.099987209678 0.100000226073 35.399997740137 3.539999549024
35	173881 14170 964 197828 1.241825013197 36.541822543656 354 0.099987209678 0.100000226073 35.399997740137 3.539999549024
34	188051 9597 964 197828 1.241825013197 36.541822543656 354 1 1 354 354
33	197648 9597 964 197828 1.241825013197 36.541822543656 354 1 1 354 354
32	207245 499 5235 194857 2 36 35 0 0 0 0
31	207744 710 5235 194857 2 36 35 0.023625 0.02625 0.916125 0.023986265625
30	208454 499 5235 194857 2 36 35 1 1 35 35
51	208953 11522 234 197654 1.11 36.51 355 -1.4194130171797 1.4079368896404 -3.0943681640105 342.01576784613
50	220475 11557 234 197654 1.11 36.51 355 -1.2931901571596 1.2699191606876 -7.4947947111482 249.34097761783
49	232032 7522 234 197654 1.11 36.51 355 36.55 36.55 12975.25 474245.3875
48	239554 11020 234 197654 1.11 36.51 355 198.21963844299 693.35224906756 158727.37221318 78284818.8982
47	250574 11032 234 197654 1.11 36.51 355 12.851715570255 15.512276708495 4964.9462101864 69620.287380453
45	261606 11770 234 197654 1.11 36.51 355 -0.38763643254658 0.35983688848598 -1.4642800495641 19.24934837819
44	273376 11029 234 197654 1.11 36.51 355 25.830777465587 26.763580805644 9303.2806177174 243822.84581205
46	284405 6102 234 197654 1.11 36.51 355 2 2 710 1420
58	290507 14162 1176 198040 1.281934917156 36.581932395033 354 0.099987209678 0.10000022641 35.399997687555 3.5399995385077
57	304669 14161 970 197834 1.241825113637 36.541822643578 354 0.099987209678 0.100000226175 35.399997739619 3.5399995489204
56	318830 9596 1176 198040 1.281934917156 36.581932395033 354 2 2 708 1416
55	328426 9589 970 197834 1.241825113637 36.541822643578 354 2 2 708 1416
54	338015 499 5236 194858 2 36 35 0 0 0 0
53	338514 710 5236 194858 2 36 35 0.023625 0.02625 0.916125 0.023986265625
52	339224 499 5236 194858 2 36 35 2 2 70 140
73	339723 11487 235 197655 1.11 36.51 355 -1.4974843941923 1.4887425735274 -2.6936363720938 374.50327344561
72	351210 11547 235 197655 1.11 36.51 355 -1.3293510392169 1.3181908042085 -7.4841739385805 267.70939540941
71	362757 7522 235 197655 1.11 36.51 355 36.55 36.55 12975.25 474245.3875
70	370279 11024 235 197655 1.11 36.51 355 168.10853919983 663.18537076017 148006.10375349 69023682.753176
69	381303 11047 235 197655 1.11 36.51 355 12.806151386176 15.454333650969 4964.3881376374 69614.128962942
67	392350 11998 235 197655 1.11 36.51 355 -0.099670779975924 0.12238329716474 0.63302049607446 1.0316993564869
66	404348 11033 235 197655 1.11 36.51 355 26.066805862104 26.431721870054 9301.2572982372 243703.3725866
68	415381 6102 235 197655 1.11 36.51 355 3 3 1065 3195
80	421483 14164 1040 197904 1.262752214077 36.562749744204 354 0.099987168691 0.100000226157 35.399997739805 3.5399995489586
79	435647 14157 976 197840 1.241825214077 36.541822744204 354 0.099987209678 0.100000226156 35.399997739805 3.5399995489576
78	449804 9595 1040 197904 1.262752214077 36.562749744204 354 3 3 1062 3186
77	459399 9594 976 197840 1.241825214077 36.541822744204 354 3 3 1062 3186
76	468993 499 5237 194859 2 36 35 0 0 0 0
75	469492 710 5237 194859 2 36 35 0.023625 0.02625 0.916125 0.023986265625
74	470202 499 5237 194859 2 36 35 3 3 105 315
117	470701 11863 237 197657 1.11 36.51 355 -1.4031855138749 2.1788883471037 42.476966738961 357.48533990023
116	482564 11917 237 197657 1.11 36.51 355 -1.2577834462073 1.6690313699126 30.049351238611 251.52439281458
115	494481 7877 237 197657 1.11 36.51 355 36.55 36.55 12975.25 474245.3875
114	502358 11368 237 197657 1.11 36.51 355 107.88631019592 610.47134769157 126675.15419362 52568130.437773
113	513726 11391 237 197657 1.11 36.51 355 12.885829319313 16.818125522864 5040.7765344428 71846.310751502
111	525117 12283 237 197657 1.11 36.51 355 -0.045044868589484 4.4958495539467 181.60660083536 644.29766081273
110	537400 11410 237 197657 1.11 36.51 355 26.111111788035 44.153684722261 9734.8048046518 271584.91421385
112	548810 6457 237 197657 1.11 36.51 355 5 5 1775 8875
124	555267 14489 1242 198112 1.287392218476 36.587402670616 354 0.099987209151 0.100000226426 35.400010661818 3.5400021331965
123	569756 14511 988 197852 1.241825414956 36.541822919664 354 0.099987209678 0.100000226189 35.399997714386 3.5399995438737
122	584267 9935 1242 198112 1.287392218476 36.587402670616 354 5 5 1770 8850
121	594202 9950 988 197852 1.241825414956 36.541822919664 354 5 5 1770 8850
120	604152 534 5239 194861 2 36 35 0 0 0 0
119	604686 745 5239 194861 2 36 35 0.023625 0.02625 0.916125 0.023986265625
118	605431 534 5239 194861 2 36 35 5 5 175 875
139	605965 11859 238 197658 1.11 36.51 355 -1.3783875971104 1.9736213507207 11.495692234884 324.9227546102
138	617824 11936 238 197658 1.11 36.51 355 -1.2266741212443 1.3750677022285 3.9058058632159 226.41920640907
137	629760 7877 238 197658 1.11 36.51 355 36.55 36.55 12975.25 474245.3875
136	637637 11381 238 197658 1.11 36.51 355 77.775199508667 574.17949787228 115861.37235812 45132097.788617
135	649018 11389 238 197658 1.11 36.51 355 12.916932602803 15.34827924565 4978.0569754219 69958.901567638
133	660407 12312 238 197658 1.11 36.51 355 -0.032679682256253 2.587329425715 62.419065508462 111.57665969871
132	672719 11389 238 197658 1.11 36.51 355 26.111110687256 32.239769424501 9392.5274443287 248827.95462575
134	684108 6457 238 197658 1.11 36.51 355 6 6 2130 12780
146	690565 14504 1106 197964 1.266714515397 36.566712040906 354 0.099987209678 0.1000002262 35.399997735187 3.5399995480339
145	705069 14516 994 197858 1.241825515396 36.541823040982 354 0.099987209678 0.100000226199 35.399997735264 3.5399995480494
144	719585 9942 1106 197964 1.266714515397 36.566712040906 354 6 6 2124 12744
143	729527 9945 994 197858 1.241825515396 36.541823040982 354 6 6 2124 12744
142	739472 534 5240 194862 2 36 35 0 0 0 0
141	740006 745 5240 194862 2 36 35 0.023625 0.02625 0.916125 0.023986265625
140	740751 534 5240 194862 2 36 35 6 6 210 1260
161	741285 11877 239 197659 1.11 36.51 355 -1.3359029546602 1.5048001357276 0.30587852788981 303.08392116379
160	753162 11951 239 197659 1.11 36.51 355 -1.1959395307574 1.1923271419985 -4.9101351409975 217.96354158875
159	765113 7877 239 197659 1.11 36.51 355 36.55 36.55 12975.25 474245.3875
158	772990 11385 239 197659 1.11 36.51 355 47.664088821411 542.78862565307 105132.48233275 38443262.802625
157	784375 11392 239 197659 1.11 36.51 355 12.948139896347 15.312851613207 4964.9549341501 69591.738102141
155	795767 12361 239 197659 1.11 36.51 355 -0.033578704677813 0.84591901572247 13.06298321321 6.3469541910961
154	808128 11378 239 197659 1.11 36.51 355 26.111110687256 27.373678825356 9308.6279845401 244095.60824965
156	819506 6457 239 197659 1.11 36.51 355 7 7 2485 17395
168	825963 14510 1308 198166 1.289469419356 36.589466897199 354 0.09998720799 0.100000226444 35.399997687521 3.539999538501
167	840473 14499 1000 197864 1.241825615836 36.541823145778 354 0.099987209678 0.100000226208 35.39999773962 3.5399995489206
166	854972 9942 1308 198166 1.289469419356 36.589466897199 354 7 7 2478 17346
165	864914 9934 1000 197864 1.241825615836 36.541823145778 354 7 7 2478 17346
164	874848 534 5241 194863 2 36 35 0 0 0 0
163	875382 745 5241 194863 2 36 35 0.023625 0.02625 0.916125 0.023986265625
162	876127 534 5241 194863 2 36 35 7 7 245 1715
88	876661 11051 236 198204 1.11 36.59 356 0 26.341593189902 8757.6725231497 224009.37152845
89	887712 12013 236 198204 1.11 36.59 356 -7.0435911311805 0.052134324025422 -265.59217229918 1476.385454326
90	899725 6120 236 198204 1.11 36.59 356 4 4 1424 5696
91	905845 11068 236 198204 1.11 36.59 356 12.860062345164 20.377050260299 5243.21733939 78554.37171342
92	916913 11062 236 198204 1.11 36.59 356 137.99742469788 660.30480877554 138493.90850757 61525358.289235
93	927975 7544 236 198204 1.11 36.59 356 36.55 36.55 13011.8 475581.29
94	935519 11490 236 198204 1.11 36.59 356 -1.2921860968216 2.5 64.116849828693 381.49295804015
95	947009 11519 236 198204 1.11 36.59 356 -1.4619047942842 4.1540239062915 93.524748331905 673.84412404153
96	958528 499 5238 194860 2 36 35 4 4 140 560
97	959027 710 5238 194860 2 36 35 0.023625 0.02625 0.916125 0.023986265625
98	959737 499 5238 194860 2 36 35 0 0 0 0
99	960236 9586 982 197846 1.241825314516 36.541822758494 354 4 4 1416 5664
100	969822 9951 904 197762 1.240527711877 36.54053815823 354 4 4 1416 5664
101	979773 14517 982 197846 1.241825314516 36.541822758494 354 0.099987209678 0.100000226173 35.399997653656 3.5399995317277
102	994290 14505 904 197762 1.240527711877 36.54053815823 354 0.099987210112 0.10000022651 35.400010656031 3.5400021320391
