file 1680566 1501689029                                         
version 2
run SinusoidalPosInjectionAttack-66-20170802-17:49:59-2634
attr CACCSpacing 20
attr attackAcc -30
attr attackPos 5
attr attackSpeed 150
attr attackStart 30
attr attacker 2
attr beaconInterval 0.1
attr configname SinusoidalPosInjectionAttack
attr controller 1
attr datetime 20170802-17:49:59
attr experiment SinusoidalPosInjectionAttack
attr fakeAcc "(2 == 4)"
attr fakePos "(2 == 2)"
attr fakeSpeed "(2 == 3)"
attr inifile omnetpp_66.ini
attr iterationvars "$attacker=2, $attackSpeed=150, $attackPos=5, $attackAcc=-30, $leaderSpeed=50, $controller=1, $CACCSpacing=20, $sController=\"CACC\", $attackStart=30, $0=20, $1=0, $nCars=8, $platoonSize=8, $nLanes=1, $beaconInterval=0.1, $priority=2, $packetSize=200, $ploegH=0.5, $leaderHeadway=1.2, $fakeSpeed=(2 == 3), $fakeAcc=(2 == 4), $fakePos=(2 == 2)"
attr iterationvarsf attacker=2,attackSpeed=150,attackPos=5,attackAcc=-30,leaderSpeed=50,controller=1,CACCSpacing=20,sController=CACC,attackStart=30,20,0,nCars=8,platoonSize=8,nLanes=1,beaconInterval=0.1,priority=2,packetSize=200,ploegH=0.5,leaderHeadway=1.2,fakeSpeed=(2_==_3),fakeAcc=(2_==_4),fakePos=(2_==_2)-
attr leaderHeadway 1.2
attr leaderSpeed 50
attr measurement "$attacker=2, $attackSpeed=150, $attackPos=5, $attackAcc=-30, $leaderSpeed=50, $controller=1, $CACCSpacing=20, $sController=\"CACC\", $attackStart=30, $0=20, $1=0, $nCars=8, $platoonSize=8, $nLanes=1, $beaconInterval=0.1, $priority=2, $packetSize=200, $ploegH=0.5, $leaderHeadway=1.2, $fakeSpeed=(2 == 3), $fakeAcc=(2 == 4), $fakePos=(2 == 2)"
attr nCars 8
attr nLanes 1
attr network scenario
attr packetSize 200
attr platoonSize 8
attr ploegH 0.5
attr priority 2
attr processid 2634
attr repetition 1
attr replication #1
attr resultdir results
attr runnumber 66
attr sController "\"CACC\""
attr seedset 1
param **.coreDebug false
param **.debug false
param **.headway 0.1s
param **.numberOfCars 8
param **.numberOfCarsPerPlatoon 8
param **.numberOfLanes 1
param **.numericController 1
param **.traffic.nCars 8
param **.traffic.nLanes 1
param **.traffic.platoonInsertDistance 20m
param **.traffic.platoonInsertHeadway 0s
param **.traffic.platoonInsertSpeed 50kmph
param **.traffic.platoonInsertTime "1 s"
param **.traffic.platoonLeaderHeadway 1.2s
param **.traffic.platoonSize 8
param **.traffic.platooningVType "\"vtypeauto\""
param **.traffic_type "\"PlatoonsTrafficManager\""
param *.**.nic.mac1609_4.bitrate 6Mbps
param *.**.nic.mac1609_4.txPower 100mW
param *.**.nic.mac1609_4.useServiceChannel false
param *.**.nic.phy80211p.analogueModels "xmldoc(\"config.xml\")"
param *.**.nic.phy80211p.decider "xmldoc(\"config.xml\")"
param *.**.nic.phy80211p.maxTXPower 100mW
param *.**.nic.phy80211p.sensitivity -94dBm
param *.**.nic.phy80211p.thermalNoise -95dBm
param *.**.nic.phy80211p.usePropagationDelay true
param *.**.nic.phy80211p.useThermalNoise true
param *.annotations.draw false
param *.connectionManager.alpha 2.0
param *.connectionManager.carrierFrequency "5.890e9 Hz"
param *.connectionManager.pMax 100mW
param *.connectionManager.sat -94dBm
param *.connectionManager.sendDirect true
param *.manager.autoShutdown true
param *.manager.commandLine "\"sumo --remote-port $port --seed $seed --configuration-file $configFile\""
param *.manager.configFile "\"./sumocfg/freeway.sumo.cfg\""
param *.manager.host "\"localhost\""
param *.manager.margin 25
param *.manager.moduleDisplayString "\"\""
param *.manager.moduleName "\"node\""
param *.manager.moduleType "\"Car\""
param *.manager.updateInterval 0.01s
param *.node[*].appl.attackStart 30s
param *.node[*].appl.attackerType 2
param *.node[*].appl.simulationDuration "60 s"
param *.node[*].appl_type "\"SimplePlatooningApp\""
param *.node[*].helper.nCars 8
param *.node[*].helper.nLanes 1
param *.node[*].helper.platoonSize 8
param *.node[*].helper_type "\"PositionHelper\""
param *.node[*].mobility.x 0
param *.node[*].mobility.y 0
param *.node[*].mobility.z 1.895
param *.node[*].prot.attackStart 30s
param *.node[*].prot.attackerType 2
param *.node[*].prot.attackingNode 3
param *.node[*].prot.beaconingInterval 0.1s
param *.node[*].prot.fakeAcc "(2 == 4)"
param *.node[*].prot.fakePos "(2 == 2)"
param *.node[*].prot.fakeSpeed "(2 == 3)"
param *.node[*].prot.maliciousAcc "-30 mpss"
param *.node[*].prot.maliciousSpeed 150kmph
param *.node[*].prot.packetSize 200
param *.node[*].prot.priority 2
param *.node[*].prot.shiftX "5 m"
param *.node[*].prot.useControllerAcceleration true
param *.node[*].protocol_type "\"SimplePlatooningBeaconing\""
param *.node[*].scenario.accHeadway 0.1s
param *.node[*].scenario.caccC1 0.5
param *.node[*].scenario.caccOmegaN "0.2 Hz"
param *.node[*].scenario.caccSpacing 20m
param *.node[*].scenario.caccXi 1
param *.node[*].scenario.controller "\"CACC\""
param *.node[*].scenario.engineTau "0.5 s"
param *.node[*].scenario.leaderHeadway 1.2s
param *.node[*].scenario.leaderOscillationFrequency "0.2 Hz"
param *.node[*].scenario.leaderSpeed 50kmph
param *.node[*].scenario.oscillationAmplitude "10 kmph"
param *.node[*].scenario.ploegH 0.5s
param *.node[*].scenario.ploegKd 0.7
param *.node[*].scenario.ploegKp 0.2
param *.node[*].scenario.startOscillating "5 s"
param *.node[*].scenario.useRealisticEngine false
param *.node[*].scenario_type "\"SinusoidalScenario\""
param *.node[*].unicast.packetLossRate 0
param *.obstacles.debug false
param *.playgroundSizeX 65000m
param *.playgroundSizeY 25000m
param *.playgroundSizeZ 50m
param *.world.use2D false
param *.world.useTorus false

vector 0  scenario.node[0].appl  distance  ETV
vector 1  scenario.node[0].appl  relativeSpeed  ETV
vector 2  scenario.node[0].appl  nodeId  ETV
vector 6  scenario.node[0].appl  acceleration  ETV
vector 7  scenario.node[0].appl  controllerAcceleration  ETV
vector 3  scenario.node[0].appl  speed  ETV
vector 4  scenario.node[0].appl  posx  ETV
vector 5  scenario.node[0].appl  posy  ETV
vector 22  scenario.node[1].appl  distance  ETV
vector 23  scenario.node[1].appl  relativeSpeed  ETV
vector 24  scenario.node[1].appl  nodeId  ETV
vector 28  scenario.node[1].appl  acceleration  ETV
vector 29  scenario.node[1].appl  controllerAcceleration  ETV
vector 25  scenario.node[1].appl  speed  ETV
vector 26  scenario.node[1].appl  posx  ETV
vector 27  scenario.node[1].appl  posy  ETV
vector 44  scenario.node[2].appl  distance  ETV
vector 45  scenario.node[2].appl  relativeSpeed  ETV
vector 46  scenario.node[2].appl  nodeId  ETV
vector 50  scenario.node[2].appl  acceleration  ETV
vector 51  scenario.node[2].appl  controllerAcceleration  ETV
vector 47  scenario.node[2].appl  speed  ETV
vector 48  scenario.node[2].appl  posx  ETV
vector 49  scenario.node[2].appl  posy  ETV
vector 66  scenario.node[3].appl  distance  ETV
vector 67  scenario.node[3].appl  relativeSpeed  ETV
vector 68  scenario.node[3].appl  nodeId  ETV
vector 72  scenario.node[3].appl  acceleration  ETV
vector 73  scenario.node[3].appl  controllerAcceleration  ETV
vector 69  scenario.node[3].appl  speed  ETV
vector 70  scenario.node[3].appl  posx  ETV
vector 71  scenario.node[3].appl  posy  ETV
vector 88  scenario.node[4].appl  distance  ETV
vector 89  scenario.node[4].appl  relativeSpeed  ETV
vector 90  scenario.node[4].appl  nodeId  ETV
vector 94  scenario.node[4].appl  acceleration  ETV
vector 95  scenario.node[4].appl  controllerAcceleration  ETV
vector 91  scenario.node[4].appl  speed  ETV
vector 92  scenario.node[4].appl  posx  ETV
vector 93  scenario.node[4].appl  posy  ETV
vector 110  scenario.node[5].appl  distance  ETV
vector 111  scenario.node[5].appl  relativeSpeed  ETV
vector 112  scenario.node[5].appl  nodeId  ETV
vector 116  scenario.node[5].appl  acceleration  ETV
vector 117  scenario.node[5].appl  controllerAcceleration  ETV
vector 113  scenario.node[5].appl  speed  ETV
vector 114  scenario.node[5].appl  posx  ETV
vector 115  scenario.node[5].appl  posy  ETV
vector 132  scenario.node[6].appl  distance  ETV
vector 133  scenario.node[6].appl  relativeSpeed  ETV
vector 134  scenario.node[6].appl  nodeId  ETV
vector 138  scenario.node[6].appl  acceleration  ETV
vector 139  scenario.node[6].appl  controllerAcceleration  ETV
vector 135  scenario.node[6].appl  speed  ETV
vector 136  scenario.node[6].appl  posx  ETV
vector 137  scenario.node[6].appl  posy  ETV
vector 154  scenario.node[7].appl  distance  ETV
vector 155  scenario.node[7].appl  relativeSpeed  ETV
vector 156  scenario.node[7].appl  nodeId  ETV
vector 160  scenario.node[7].appl  acceleration  ETV
vector 161  scenario.node[7].appl  controllerAcceleration  ETV
vector 157  scenario.node[7].appl  speed  ETV
vector 158  scenario.node[7].appl  posx  ETV
vector 159  scenario.node[7].appl  posy  ETV
vector 58  scenario.node[2].prot  frontDelay  ETV
vector 56  scenario.node[2].prot  frontDelayId  ETV
vector 102  scenario.node[4].prot  frontDelay  ETV
vector 100  scenario.node[4].prot  frontDelayId  ETV
vector 146  scenario.node[6].prot  frontDelay  ETV
vector 144  scenario.node[6].prot  frontDelayId  ETV
vector 168  scenario.node[7].prot  frontDelay  ETV
vector 166  scenario.node[7].prot  frontDelayId  ETV
vector 124  scenario.node[5].prot  frontDelay  ETV
vector 122  scenario.node[5].prot  frontDelayId  ETV
vector 35  scenario.node[1].prot  leaderDelay  ETV
vector 33  scenario.node[1].prot  leaderDelayId  ETV
vector 36  scenario.node[1].prot  frontDelay  ETV
vector 34  scenario.node[1].prot  frontDelayId  ETV
vector 57  scenario.node[2].prot  leaderDelay  ETV
vector 55  scenario.node[2].prot  leaderDelayId  ETV
vector 79  scenario.node[3].prot  leaderDelay  ETV
vector 77  scenario.node[3].prot  leaderDelayId  ETV
vector 101  scenario.node[4].prot  leaderDelay  ETV
vector 99  scenario.node[4].prot  leaderDelayId  ETV
vector 123  scenario.node[5].prot  leaderDelay  ETV
vector 121  scenario.node[5].prot  leaderDelayId  ETV
vector 145  scenario.node[6].prot  leaderDelay  ETV
vector 143  scenario.node[6].prot  leaderDelayId  ETV
vector 167  scenario.node[7].prot  leaderDelay  ETV
vector 165  scenario.node[7].prot  leaderDelayId  ETV
vector 80  scenario.node[3].prot  frontDelay  ETV
vector 78  scenario.node[3].prot  frontDelayId  ETV
vector 8  scenario.node[0].prot  nodeId  ETV
vector 9  scenario.node[0].prot  busyTime  ETV
vector 10  scenario.node[0].prot  collisions  ETV
vector 30  scenario.node[1].prot  nodeId  ETV
vector 31  scenario.node[1].prot  busyTime  ETV
vector 32  scenario.node[1].prot  collisions  ETV
vector 52  scenario.node[2].prot  nodeId  ETV
vector 53  scenario.node[2].prot  busyTime  ETV
vector 54  scenario.node[2].prot  collisions  ETV
vector 74  scenario.node[3].prot  nodeId  ETV
vector 75  scenario.node[3].prot  busyTime  ETV
vector 76  scenario.node[3].prot  collisions  ETV
vector 96  scenario.node[4].prot  nodeId  ETV
vector 97  scenario.node[4].prot  busyTime  ETV
vector 98  scenario.node[4].prot  collisions  ETV
vector 118  scenario.node[5].prot  nodeId  ETV
vector 119  scenario.node[5].prot  busyTime  ETV
vector 120  scenario.node[5].prot  collisions  ETV
vector 140  scenario.node[6].prot  nodeId  ETV
vector 141  scenario.node[6].prot  busyTime  ETV
vector 142  scenario.node[6].prot  collisions  ETV
vector 162  scenario.node[7].prot  nodeId  ETV
vector 163  scenario.node[7].prot  busyTime  ETV
vector 164  scenario.node[7].prot  collisions  ETV
7	11245 13860 232 328174 1.11 59.91 589 -1.5 1.5 -14.445969899918 993.24092361736
6	25105 18587 232 328174 1.11 59.91 589 -1.472274679513 1.4513434175798 -12.507264912644 675.29835211523
5	43692 12081 232 328174 1.11 59.91 589 36.55 36.55 21527.95 786846.5725
4	55773 17911 232 328174 1.11 59.91 589 201.9942813872 1022.9770798851 361573.83487458 255010359.23481
3	73684 17901 232 328174 1.11 59.91 589 12.599076970844 15.853603639796 8223.2832500118 115251.79065057
1	91585 9725 232 328174 1.11 59.91 589 0 0 0 0
0	101310 10314 232 328174 1.11 59.91 589 -1 -1 -589 589
2	111624 9725 232 328174 1.11 59.91 589 0 0 0 0
10	121349 858 5168 328662 2 60 59 0 0 0 0
9	122207 1154 5168 328662 2 60 59 0.023297 0.02625 1.545797 0.040508375209
8	123361 799 5168 328662 2 60 59 0 0 0 0
29	124160 16906 233 328175 1.11 59.91 589 -1.5466261414329 1.5427619280687 -19.185792485113 1005.1450260573
28	141066 19166 233 328175 1.11 59.91 589 -1.4899163908959 1.4506836311034 -11.88357631933 678.0087370887
27	160232 12670 233 328175 1.11 59.91 589 36.55 36.55 21527.95 786846.5725
26	172902 18490 233 328175 1.11 59.91 589 177.99428138733 998.79819463463 347305.02730212 237813615.86687
25	191392 18491 233 328175 1.11 59.91 589 12.588085979204 15.843435070848 8221.5172143013 115202.66867251
23	209883 19813 233 328175 1.11 59.91 589 -0.12340964981971 0.14226263692399 1.8911083595709 5.1118242611847
22	229696 18499 233 328175 1.11 59.91 589 19.955408134178 20.423435535181 11912.772251745 240950.31497924
24	248195 10314 233 328175 1.11 59.91 589 1 1 589 589
36	258509 23703 1238 328624 1.297803401661 59.997811496734 588 0.099999280546 0.100012285177 58.800007375959 5.8800014804559
35	282212 23703 1238 328624 1.297803401661 59.997811496734 588 0.099999280546 0.100012285177 58.800007375959 5.8800014804559
34	305915 16117 1238 328624 1.297803401661 59.997811496734 588 1 1 588 588
33	322032 16117 1238 328624 1.297803401661 59.997811496734 588 1 1 588 588
32	338149 858 5169 328663 2 60 59 0 0 0 0
31	339007 1213 5169 328663 2 60 59 0.023297 0.02625 1.545797 0.040508375209
30	340220 858 5169 328663 2 60 59 1 1 59 59
51	341078 18900 234 328176 1.11 59.91 589 -1.5013789169821 1.5 -15.002627223007 969.47363159504
50	359978 19156 234 328176 1.11 59.91 589 -1.4795465338656 1.4451253720505 -11.790995788652 670.96704637045
49	379134 12670 234 328176 1.11 59.91 589 36.55 36.55 21527.95 786846.5725
48	391804 18495 234 328176 1.11 59.91 589 153.99428138733 974.71037598178 333130.78033173 221430579.5798
47	410299 18501 234 328176 1.11 59.91 589 12.591631837831 15.832852517284 8220.6421960672 115173.54016789
45	428800 20578 234 328176 1.11 59.91 589 -0.0071974947505193 0.013626159978871 0.99385399728118 0.019393726516075
44	449378 18477 234 328176 1.11 59.91 589 19.999999977035 20.104225149416 11818.229470019 237132.28664152
46	467855 10314 234 328176 1.11 59.91 589 2 2 1178 2356
58	478169 23710 832 328212 1.212436360941 59.912431454882 588 0.099999280539 0.100012285111 58.799994374827 5.8799988800791
57	501879 23717 1244 328630 1.297803481717 59.997811577079 588 0.099999280543 0.100012285179 58.800007376248 5.8800014805137
56	525596 16125 832 328212 1.212436360941 59.912431454882 588 2 2 1176 2352
55	541721 16125 1244 328630 1.297803481717 59.997811577079 588 2 2 1176 2352
54	557846 858 5170 328664 2 60 59 0 0 0 0
53	558704 1213 5170 328664 2 60 59 0.023296 0.02625 1.545796 0.040508328616
52	559917 858 5170 328664 2 60 59 2 2 118 236
73	560775 19034 235 328177 1.11 59.91 589 -1.4910652804581 1.4960972912316 -15.492906948395 949.59995108368
72	579809 19157 235 328177 1.11 59.91 589 -1.4676550540285 1.443132550405 -11.617151747968 665.11707678043
71	598966 12670 235 328177 1.11 59.91 589 36.55 36.55 21527.95 786846.5725
70	611636 18495 235 328177 1.11 59.91 589 129.99428138733 950.74182644299 319006.0895742 205792619.33641
69	630131 18495 235 328177 1.11 59.91 589 12.599807558435 15.824416312611 8220.9639089686 115178.79870613
67	648626 20390 235 328177 1.11 59.91 589 -0.021861806930316 0.014939185720166 -0.20380294342107 0.046718605939424
66	669016 18461 235 328177 1.11 59.91 589 19.935010675607 20.042503327411 11768.697191795 235148.39667941
68	687477 10314 235 328177 1.11 59.91 589 3 3 1767 5301
80	697791 23694 1312 328701 1.307225561772 60.007220657024 588 0.099999280538 0.100012284991 58.799994376138 5.8799988803414
79	721485 23704 1250 328636 1.297803561772 59.997811657024 588 0.099999280538 0.100012285181 58.800007376138 5.8800014804917
78	745189 16116 1312 328701 1.307225561772 60.007220657024 588 3 3 1764 5292
77	761305 16129 1250 328636 1.297803561772 59.997811657024 588 3 3 1764 5292
76	777434 858 5171 328665 2 60 59 0 0 0 0
75	778292 1213 5171 328665 2 60 59 0.023297 0.02625 1.545797 0.040508375209
74	779505 858 5171 328665 2 60 59 3 3 177 531
95	780363 19025 236 328178 1.11 59.91 589 -1.4989614353725 1.5005025368356 -15.53897353896 967.95655320482
94	799388 19170 236 328178 1.11 59.91 589 -1.4660392114482 1.4463833547683 -11.628617718957 666.32394051099
93	818558 12670 236 328178 1.11 59.91 589 36.55 36.55 21527.95 786846.5725
92	831228 18504 236 328178 1.11 59.91 589 105.99428138733 926.7382298018 304874.02149676 190823789.81464
91	849732 18509 236 328178 1.11 59.91 589 12.598682328386 15.823059521886 8220.9276346776 115178.6019015
89	868241 20352 236 328178 1.11 59.91 589 -0.016890544912371 0.014137173567013 0.15244580846376 0.052155281631302
88	888593 18480 236 328178 1.11 59.91 589 19.975623755661 20.006724495562 11776.067351954 235442.76966983
90	907073 10314 236 328178 1.11 59.91 589 4 4 2356 9424
102	917387 24288 902 328288 1.235040521052 59.9350356149 588 0.099999280533 0.100012285109 58.799994374734 5.8799988800605
101	941675 24275 1256 328642 1.297803641828 59.997811737092 588 0.099999280537 0.10001228518 58.80000737615 5.8800014804941
100	965950 16701 902 328288 1.235040521052 59.9350356149 588 4 4 2352 9408
99	982651 16114 1256 328642 1.297803641828 59.997811737092 588 4 4 2352 9408
98	998765 858 5172 328666 2 60 59 0 0 0 0
97	999623 1213 5172 328666 2 60 59 0.023297 0.02625 1.545797 0.040508375209
96	1000836 858 5172 328666 2 60 59 4 4 236 944
117	1001694 19350 237 328179 1.11 59.91 589 -1.5271094739155 1.5257604004057 -16.248973730017 994.87514871315
116	1021044 19777 237 328179 1.11 59.91 589 -1.4653752109981 1.4468930496795 -11.419869460404 666.11244350522
115	1040821 13259 237 328179 1.11 59.91 589 36.55 36.55 21527.95 786846.5725
114	1054080 19082 237 328179 1.11 59.91 589 81.994281387329 902.75763886149 290741.79162249 176532724.05584
113	1073162 19086 237 328179 1.11 59.91 589 12.599816654589 15.821324142458 8221.1295428946 115184.02534506
111	1092248 20774 237 328179 1.11 59.91 589 -0.021219183854248 0.020877287952736 -0.085622039876148 0.13269175333499
110	1113022 19060 237 328179 1.11 59.91 589 19.94704915186 20.044767102669 11776.233912429 235449.69815711
112	1132082 10903 237 328179 1.11 59.91 589 5 5 2945 14725
124	1142985 24281 1178 328558 1.297390081439 59.997385175085 588 0.099999280531 0.100012284969 58.799994374532 5.8799988800202
123	1167266 24294 1262 328648 1.297803721883 59.997811817077 588 0.099999280536 0.100012285181 58.80000737608 5.8800014804801
122	1191560 16700 1178 328558 1.297390081439 59.997385175085 588 5 5 2940 14700
121	1208260 16716 1262 328648 1.297803721883 59.997811817077 588 5 5 2940 14700
120	1224976 917 5173 328667 2 60 59 0 0 0 0
119	1225893 1272 5173 328667 2 60 59 0.023297 0.02625 1.545797 0.040508375209
118	1227165 917 5173 328667 2 60 59 5 5 295 1475
139	1228082 19649 238 328180 1.11 59.91 589 -1.4994812224599 1.5010910186343 -15.64519829164 962.0990339609
138	1247731 19760 238 328180 1.11 59.91 589 -1.460890229338 1.4428036703011 -11.424467126719 661.26436446139
137	1267491 13259 238 328180 1.11 59.91 589 36.55 36.55 21527.95 786846.5725
136	1280750 19084 238 328180 1.11 59.91 589 57.994283294678 878.75957209502 276612.45857488 162923137.33662
135	1299834 19088 238 328180 1.11 59.91 589 12.605927650691 15.817960513506 8221.1486399998 115181.68601398
133	1318922 20723 238 328180 1.11 59.91 589 -0.022227647637624 0.021922833067013 0.095101589444448 0.14769306518465
132	1339645 19078 238 328180 1.11 59.91 589 19.970544108421 20.006916392229 11773.333429551 235333.45572801
134	1358723 10903 238 328180 1.11 59.91 589 6 6 3534 21204
146	1369626 24302 970 328356 1.248713681163 59.948708774939 588 0.09999928053 0.100012285028 58.799994374662 5.8799988800461
145	1393928 24279 1268 328654 1.297803801938 59.997811897126 588 0.099999280533 0.100012285183 58.800007376074 5.8800014804789
144	1418207 16710 970 328356 1.248713681163 59.948708774939 588 6 6 3528 21168
143	1434917 16690 1268 328654 1.297803801938 59.997811897126 588 6 6 3528 21168
142	1451607 917 5174 328668 2 60 59 0 0 0 0
141	1452524 1272 5174 328668 2 60 59 0.023297 0.02625 1.545797 0.040508375209
140	1453796 917 5174 328668 2 60 59 6 6 354 2124
161	1454713 18788 239 328181 1.11 59.91 589 -1.5088492954726 1.5101632440685 -16.068466249483 976.69905792058
160	1473501 19767 239 328181 1.11 59.91 589 -1.4625053263375 1.4451084840378 -11.495449652836 663.82550851316
159	1493268 13259 239 328181 1.11 59.91 589 36.55 36.55 21527.95 786846.5725
158	1506527 19094 239 328181 1.11 59.91 589 33.994282817841 854.75761847535 262478.10994119 149987260.79143
157	1525621 19088 239 328181 1.11 59.91 589 12.604867500514 15.821255232439 8221.1268391275 115182.67522807
155	1544709 20794 239 328181 1.11 59.91 589 -0.021950208192537 0.022636834269107 0.13604554360077 0.13591182206014
154	1565503 19090 239 328181 1.11 59.91 589 19.985733389749 20.011309431129 11778.348197679 235533.95254978
156	1584593 10903 239 328181 1.11 59.91 589 7 7 4123 28861
168	1595496 24288 1040 328426 1.263894761218 59.963889855002 588 0.099999280531 0.100012284963 58.79999437467 5.8799988800478
167	1619784 24277 1274 328660 1.297803881994 59.99781197719 588 0.099999280535 0.100012285181 58.800007376082 5.8800014804805
166	1644061 16704 1040 328426 1.263894761218 59.963889855002 588 7 7 4116 28812
165	1660765 16695 1274 328660 1.297803881994 59.99781197719 588 7 7 4116 28812
164	1677460 917 5175 328669 2 60 59 0 0 0 0
163	1678377 1272 5175 328669 2 60 59 0.023297 0.02625 1.545797 0.040508375209
162	1679649 917 5175 328669 2 60 59 7 7 413 2891
