file 1091703 1501690441                                         
version 2
run SinusoidalPosInjectionAttack-155-20170802-18:13:41-62396
attr CACCSpacing 20
attr attackAcc -30
attr attackPos 7
attr attackSpeed 150
attr attackStart 30
attr attacker 2
attr beaconInterval 0.1
attr configname SinusoidalPosInjectionAttack
attr controller 3
attr datetime 20170802-18:13:41
attr experiment SinusoidalPosInjectionAttack
attr fakeAcc "(2 == 4)"
attr fakePos "(2 == 2)"
attr fakeSpeed "(2 == 3)"
attr inifile omnetpp_155.ini
attr iterationvars "$attacker=2, $attackSpeed=150, $attackPos=7, $attackAcc=-30, $leaderSpeed=100, $controller=3, $CACCSpacing=20, $sController=\"CONSENSUS\", $attackStart=30, $0=15, $1=0.8, $nCars=8, $platoonSize=8, $nLanes=1, $beaconInterval=0.1, $priority=2, $packetSize=200, $ploegH=0.5, $leaderHeadway=1.2, $fakeSpeed=(2 == 3), $fakeAcc=(2 == 4), $fakePos=(2 == 2)"
attr iterationvarsf attacker=2,attackSpeed=150,attackPos=7,attackAcc=-30,leaderSpeed=100,controller=3,CACCSpacing=20,sController=CONSENSUS,attackStart=30,15,0.8,nCars=8,platoonSize=8,nLanes=1,beaconInterval=0.1,priority=2,packetSize=200,ploegH=0.5,leaderHeadway=1.2,fakeSpeed=(2_==_3),fakeAcc=(2_==_4),fakePos=(2_==_2)-
attr leaderHeadway 1.2
attr leaderSpeed 100
attr measurement "$attacker=2, $attackSpeed=150, $attackPos=7, $attackAcc=-30, $leaderSpeed=100, $controller=3, $CACCSpacing=20, $sController=\"CONSENSUS\", $attackStart=30, $0=15, $1=0.8, $nCars=8, $platoonSize=8, $nLanes=1, $beaconInterval=0.1, $priority=2, $packetSize=200, $ploegH=0.5, $leaderHeadway=1.2, $fakeSpeed=(2 == 3), $fakeAcc=(2 == 4), $fakePos=(2 == 2)"
attr nCars 8
attr nLanes 1
attr network scenario
attr packetSize 200
attr platoonSize 8
attr ploegH 0.5
attr priority 2
attr processid 62396
attr repetition 0
attr replication #0
attr resultdir results
attr runnumber 155
attr sController "\"CONSENSUS\""
attr seedset 0
param **.coreDebug false
param **.debug false
param **.headway 0.1s
param **.numberOfCars 8
param **.numberOfCarsPerPlatoon 8
param **.numberOfLanes 1
param **.numericController 3
param **.traffic.nCars 8
param **.traffic.nLanes 1
param **.traffic.platoonInsertDistance 15m
param **.traffic.platoonInsertHeadway 0.8s
param **.traffic.platoonInsertSpeed 100kmph
param **.traffic.platoonInsertTime "1 s"
param **.traffic.platoonLeaderHeadway 1.2s
param **.traffic.platoonSize 8
param **.traffic.platooningVType "\"vtypeauto\""
param **.traffic_type "\"PlatoonsTrafficManager\""
param *.**.nic.mac1609_4.bitrate 6Mbps
param *.**.nic.mac1609_4.txPower 100mW
param *.**.nic.mac1609_4.useServiceChannel false
param *.**.nic.phy80211p.analogueModels "xmldoc(\"config.xml\")"
param *.**.nic.phy80211p.decider "xmldoc(\"config.xml\")"
param *.**.nic.phy80211p.maxTXPower 100mW
param *.**.nic.phy80211p.sensitivity -94dBm
param *.**.nic.phy80211p.thermalNoise -95dBm
param *.**.nic.phy80211p.usePropagationDelay true
param *.**.nic.phy80211p.useThermalNoise true
param *.annotations.draw false
param *.connectionManager.alpha 2.0
param *.connectionManager.carrierFrequency "5.890e9 Hz"
param *.connectionManager.pMax 100mW
param *.connectionManager.sat -94dBm
param *.connectionManager.sendDirect true
param *.manager.autoShutdown true
param *.manager.commandLine "\"sumo --remote-port $port --seed $seed --configuration-file $configFile\""
param *.manager.configFile "\"./sumocfg/freeway.sumo.cfg\""
param *.manager.host "\"localhost\""
param *.manager.margin 25
param *.manager.moduleDisplayString "\"\""
param *.manager.moduleName "\"node\""
param *.manager.moduleType "\"Car\""
param *.manager.updateInterval 0.01s
param *.node[*].appl.attackStart 30s
param *.node[*].appl.attackerType 2
param *.node[*].appl.simulationDuration "60 s"
param *.node[*].appl_type "\"SimplePlatooningApp\""
param *.node[*].helper.nCars 8
param *.node[*].helper.nLanes 1
param *.node[*].helper.platoonSize 8
param *.node[*].helper_type "\"PositionHelper\""
param *.node[*].mobility.x 0
param *.node[*].mobility.y 0
param *.node[*].mobility.z 1.895
param *.node[*].prot.attackStart 30s
param *.node[*].prot.attackerType 2
param *.node[*].prot.attackingNode 3
param *.node[*].prot.beaconingInterval 0.1s
param *.node[*].prot.fakeAcc "(2 == 4)"
param *.node[*].prot.fakePos "(2 == 2)"
param *.node[*].prot.fakeSpeed "(2 == 3)"
param *.node[*].prot.maliciousAcc "-30 mpss"
param *.node[*].prot.maliciousSpeed 150kmph
param *.node[*].prot.packetSize 200
param *.node[*].prot.priority 2
param *.node[*].prot.shiftX "7 m"
param *.node[*].prot.useControllerAcceleration true
param *.node[*].protocol_type "\"SimplePlatooningBeaconing\""
param *.node[*].scenario.accHeadway 0.1s
param *.node[*].scenario.caccC1 0.5
param *.node[*].scenario.caccOmegaN "0.2 Hz"
param *.node[*].scenario.caccSpacing 20m
param *.node[*].scenario.caccXi 1
param *.node[*].scenario.controller "\"CONSENSUS\""
param *.node[*].scenario.engineTau "0.5 s"
param *.node[*].scenario.leaderHeadway 1.2s
param *.node[*].scenario.leaderOscillationFrequency "0.2 Hz"
param *.node[*].scenario.leaderSpeed 100kmph
param *.node[*].scenario.oscillationAmplitude "10 kmph"
param *.node[*].scenario.ploegH 0.5s
param *.node[*].scenario.ploegKd 0.7
param *.node[*].scenario.ploegKp 0.2
param *.node[*].scenario.startOscillating "5 s"
param *.node[*].scenario.useRealisticEngine false
param *.node[*].scenario_type "\"SinusoidalScenario\""
param *.node[*].unicast.packetLossRate 0
param *.obstacles.debug false
param *.playgroundSizeX 65000m
param *.playgroundSizeY 25000m
param *.playgroundSizeZ 50m
param *.world.use2D false
param *.world.useTorus false

vector 0  scenario.node[0].appl  distance  ETV
vector 1  scenario.node[0].appl  relativeSpeed  ETV
vector 2  scenario.node[0].appl  nodeId  ETV
vector 6  scenario.node[0].appl  acceleration  ETV
vector 7  scenario.node[0].appl  controllerAcceleration  ETV
vector 3  scenario.node[0].appl  speed  ETV
vector 4  scenario.node[0].appl  posx  ETV
vector 5  scenario.node[0].appl  posy  ETV
vector 22  scenario.node[1].appl  distance  ETV
vector 23  scenario.node[1].appl  relativeSpeed  ETV
vector 24  scenario.node[1].appl  nodeId  ETV
vector 28  scenario.node[1].appl  acceleration  ETV
vector 29  scenario.node[1].appl  controllerAcceleration  ETV
vector 25  scenario.node[1].appl  speed  ETV
vector 26  scenario.node[1].appl  posx  ETV
vector 27  scenario.node[1].appl  posy  ETV
vector 44  scenario.node[2].appl  distance  ETV
vector 45  scenario.node[2].appl  relativeSpeed  ETV
vector 46  scenario.node[2].appl  nodeId  ETV
vector 50  scenario.node[2].appl  acceleration  ETV
vector 51  scenario.node[2].appl  controllerAcceleration  ETV
vector 47  scenario.node[2].appl  speed  ETV
vector 48  scenario.node[2].appl  posx  ETV
vector 49  scenario.node[2].appl  posy  ETV
vector 66  scenario.node[3].appl  distance  ETV
vector 67  scenario.node[3].appl  relativeSpeed  ETV
vector 68  scenario.node[3].appl  nodeId  ETV
vector 72  scenario.node[3].appl  acceleration  ETV
vector 73  scenario.node[3].appl  controllerAcceleration  ETV
vector 69  scenario.node[3].appl  speed  ETV
vector 70  scenario.node[3].appl  posx  ETV
vector 71  scenario.node[3].appl  posy  ETV
vector 88  scenario.node[4].appl  distance  ETV
vector 89  scenario.node[4].appl  relativeSpeed  ETV
vector 90  scenario.node[4].appl  nodeId  ETV
vector 94  scenario.node[4].appl  acceleration  ETV
vector 95  scenario.node[4].appl  controllerAcceleration  ETV
vector 91  scenario.node[4].appl  speed  ETV
vector 92  scenario.node[4].appl  posx  ETV
vector 93  scenario.node[4].appl  posy  ETV
vector 110  scenario.node[5].appl  distance  ETV
vector 111  scenario.node[5].appl  relativeSpeed  ETV
vector 112  scenario.node[5].appl  nodeId  ETV
vector 116  scenario.node[5].appl  acceleration  ETV
vector 117  scenario.node[5].appl  controllerAcceleration  ETV
vector 113  scenario.node[5].appl  speed  ETV
vector 114  scenario.node[5].appl  posx  ETV
vector 115  scenario.node[5].appl  posy  ETV
vector 132  scenario.node[6].appl  distance  ETV
vector 133  scenario.node[6].appl  relativeSpeed  ETV
vector 134  scenario.node[6].appl  nodeId  ETV
vector 138  scenario.node[6].appl  acceleration  ETV
vector 139  scenario.node[6].appl  controllerAcceleration  ETV
vector 135  scenario.node[6].appl  speed  ETV
vector 136  scenario.node[6].appl  posx  ETV
vector 137  scenario.node[6].appl  posy  ETV
vector 154  scenario.node[7].appl  distance  ETV
vector 155  scenario.node[7].appl  relativeSpeed  ETV
vector 156  scenario.node[7].appl  nodeId  ETV
vector 160  scenario.node[7].appl  acceleration  ETV
vector 161  scenario.node[7].appl  controllerAcceleration  ETV
vector 157  scenario.node[7].appl  speed  ETV
vector 158  scenario.node[7].appl  posx  ETV
vector 159  scenario.node[7].appl  posy  ETV
vector 80  scenario.node[3].prot  frontDelay  ETV
vector 78  scenario.node[3].prot  frontDelayId  ETV
vector 58  scenario.node[2].prot  frontDelay  ETV
vector 56  scenario.node[2].prot  frontDelayId  ETV
vector 168  scenario.node[7].prot  frontDelay  ETV
vector 166  scenario.node[7].prot  frontDelayId  ETV
vector 35  scenario.node[1].prot  leaderDelay  ETV
vector 33  scenario.node[1].prot  leaderDelayId  ETV
vector 36  scenario.node[1].prot  frontDelay  ETV
vector 34  scenario.node[1].prot  frontDelayId  ETV
vector 57  scenario.node[2].prot  leaderDelay  ETV
vector 55  scenario.node[2].prot  leaderDelayId  ETV
vector 79  scenario.node[3].prot  leaderDelay  ETV
vector 77  scenario.node[3].prot  leaderDelayId  ETV
vector 101  scenario.node[4].prot  leaderDelay  ETV
vector 99  scenario.node[4].prot  leaderDelayId  ETV
vector 123  scenario.node[5].prot  leaderDelay  ETV
vector 121  scenario.node[5].prot  leaderDelayId  ETV
vector 145  scenario.node[6].prot  leaderDelay  ETV
vector 143  scenario.node[6].prot  leaderDelayId  ETV
vector 167  scenario.node[7].prot  leaderDelay  ETV
vector 165  scenario.node[7].prot  leaderDelayId  ETV
vector 124  scenario.node[5].prot  frontDelay  ETV
vector 122  scenario.node[5].prot  frontDelayId  ETV
vector 102  scenario.node[4].prot  frontDelay  ETV
vector 100  scenario.node[4].prot  frontDelayId  ETV
vector 146  scenario.node[6].prot  frontDelay  ETV
vector 144  scenario.node[6].prot  frontDelayId  ETV
vector 8  scenario.node[0].prot  nodeId  ETV
vector 9  scenario.node[0].prot  busyTime  ETV
vector 10  scenario.node[0].prot  collisions  ETV
vector 30  scenario.node[1].prot  nodeId  ETV
vector 31  scenario.node[1].prot  busyTime  ETV
vector 32  scenario.node[1].prot  collisions  ETV
vector 52  scenario.node[2].prot  nodeId  ETV
vector 53  scenario.node[2].prot  busyTime  ETV
vector 54  scenario.node[2].prot  collisions  ETV
vector 74  scenario.node[3].prot  nodeId  ETV
vector 75  scenario.node[3].prot  busyTime  ETV
vector 76  scenario.node[3].prot  collisions  ETV
vector 96  scenario.node[4].prot  nodeId  ETV
vector 97  scenario.node[4].prot  busyTime  ETV
vector 98  scenario.node[4].prot  collisions  ETV
vector 118  scenario.node[5].prot  nodeId  ETV
vector 119  scenario.node[5].prot  busyTime  ETV
vector 120  scenario.node[5].prot  collisions  ETV
vector 140  scenario.node[6].prot  nodeId  ETV
vector 141  scenario.node[6].prot  busyTime  ETV
vector 142  scenario.node[6].prot  collisions  ETV
vector 162  scenario.node[7].prot  nodeId  ETV
vector 163  scenario.node[7].prot  busyTime  ETV
vector 164  scenario.node[7].prot  collisions  ETV
7	11289 9079 232 213829 1.11 39.41 384 -1.5 1.5 -14.514265721028 626.99580540003
6	20368 12079 232 213829 1.11 39.41 384 -1.4722746794938 1.4513430531448 -7.2066531817708 422.11781465191
5	32447 7776 232 213829 1.11 39.41 384 36.55 36.55 14035.2 512986.56
4	40223 11580 232 213829 1.11 39.41 384 324.77320022556 1393.4743793822 330248.2262124 320668621.1375
3	51803 11573 232 213829 1.11 39.41 384 26.487975689908 29.742492528104 10714.548099539 299243.24858136
1	63376 6240 232 213829 1.11 39.41 384 0 0 0 0
0	69616 6624 232 213829 1.11 39.41 384 -1 -1 -384 384
2	76240 6240 232 213829 1.11 39.41 384 0 0 0 0
10	82480 543 5102 211458 2 39 38 0 0 0 0
9	83023 734 5102 211458 2 39 38 0.022969 0.02625 0.994219 0.026022887461
8	83757 505 5102 211458 2 39 38 0 0 0 0
29	84262 12402 233 213830 1.11 39.41 384 -1.9741825330129 1.9679183776638 -2.9442254797791 704.12535833048
28	96664 12424 233 213830 1.11 39.41 384 -1.7218030083651 1.712778885739 4.9500641007274 486.87114311351
27	109088 8160 233 213830 1.11 39.41 384 36.55 36.55 14035.2 512986.56
26	117248 11955 233 213830 1.11 39.41 384 283.55097122192 1352.4461783719 314379.03140087 294040731.63581
25	129203 11957 233 213830 1.11 39.41 384 26.386906932427 29.733432791865 10716.915045925 299431.42143968
23	141160 12556 233 213830 1.11 39.41 384 -1.2227231725612 1.2115321676642 -2.294879853954 269.97230642939
22	153716 11954 233 213830 1.11 39.41 384 36.17694283834 38.677065071259 14333.242150452 535188.98079118
24	165670 6624 233 213830 1.11 39.41 384 1 1 384 384
36	172294 15332 1032 214073 1.254915637607 39.454854705772 383 0.099897850073 0.100092862866 38.299953918238 3.8299914274156
35	187626 15332 1032 214073 1.254915637607 39.454854705772 383 0.099897850073 0.100092862866 38.299953918238 3.8299914274156
34	202958 10389 1032 214073 1.254915637607 39.454854705772 383 1 1 383 383
33	213347 10389 1032 214073 1.254915637607 39.454854705772 383 1 1 383 383
32	223736 543 5103 211459 2 39 38 0 0 0 0
31	224279 772 5103 211459 2 39 38 0.022969 0.02625 0.994219 0.026022887461
30	225051 543 5103 211459 2 39 38 1 1 38 38
51	225594 12441 234 213831 1.11 39.41 384 -1.470892066307 1.4591979336599 -2.6066350728937 405.07363180211
50	238035 12493 234 213831 1.11 39.41 384 -1.2930964399892 1.2698646709769 3.3247601608277 274.48903232929
49	250528 8160 234 213831 1.11 39.41 384 36.55 36.55 14035.2 512986.56
48	258688 11959 234 213831 1.11 39.41 384 242.32875747681 1310.976601827 298518.71808088 268740687.80463
47	270647 11944 234 213831 1.11 39.41 384 26.7414705815 29.400439162132 10714.381592127 299146.51743043
45	282591 12672 234 213831 1.11 39.41 384 -0.38764012536485 0.36023546300099 2.4839531563426 21.108408781807
44	295263 11950 234 213831 1.11 39.41 384 36.939715517707 37.874817987905 14324.262650918 534353.68842231
46	307213 6624 234 213831 1.11 39.41 384 2 2 768 1536
58	313837 15344 900 213941 1.229661125079 39.429665231407 383 0.099988732735 0.100001869417 38.300005956401 3.8300011991175
57	329181 15347 1038 214079 1.254915775109 39.454854844122 383 0.099897850073 0.10009286282 38.299953919086 3.8299914275852
56	344528 10404 900 213941 1.229661125079 39.429665231407 383 2 2 766 1532
55	354932 10405 1038 214079 1.254915775109 39.454854844122 383 2 2 766 1532
54	365337 543 5104 211460 2 39 38 0 0 0 0
53	365880 772 5104 211460 2 39 38 0.022969 0.02625 0.994219 0.026022887461
52	366652 543 5104 211460 2 39 38 2 2 76 152
73	367195 12427 235 213832 1.11 39.41 384 -1.5377957074449 1.5283122269944 -3.2915239651887 437.01280021962
72	379622 12466 235 213832 1.11 39.41 384 -1.3294202106678 1.3186880831064 2.9800890823683 295.71282672902
71	392088 8160 235 213832 1.11 39.41 384 36.55 36.55 14035.2 512986.56
70	400248 11951 235 213832 1.11 39.41 384 201.1065284729 1269.7995028018 282657.71731654 244743067.9279
69	412199 11947 235 213832 1.11 39.41 384 26.695691665073 29.342713140305 10714.821358919 299181.38107807
67	424146 13029 235 213832 1.11 39.41 384 -0.10270671785546 0.12549698694204 -0.47301439341912 1.1817509972587
66	437175 11951 235 213832 1.11 39.41 384 37.170671445763 37.545179653639 14325.009559677 534394.38389687
68	449126 6624 235 213832 1.11 39.41 384 3 3 1152 3456
80	455750 15335 832 213867 1.213907987576 39.413899092099 383 0.099988704008 0.100001869191 38.299992954596 3.8299985988803
79	471085 15358 1044 214085 1.254915912612 39.454854981478 383 0.099897850073 0.100092862807 38.299953918939 3.8299914275558
78	486443 10405 832 213867 1.213907987576 39.413899092099 383 3 3 1149 3447
77	496848 10409 1044 214085 1.254915912612 39.454854981478 383 3 3 1149 3447
76	507257 543 5105 211461 2 39 38 0 0 0 0
75	507800 772 5105 211461 2 39 38 0.022968 0.02625 0.994218 0.026022841524
74	508572 543 5105 211461 2 39 38 3 3 114 342
117	509115 12833 237 213834 1.11 39.41 384 -1.4308156633116 1.9751254535801 43.568473542319 402.03100036522
116	521948 12870 237 213834 1.11 39.41 384 -1.2579553277796 1.7688443672284 45.433334984595 288.16400209761
115	534818 8544 237 213834 1.11 39.41 384 36.55 36.55 14035.2 512986.56
114	543362 12338 237 213834 1.11 39.41 384 118.66208572388 1203.8396024007 251353.32164715 201616089.69042
113	555700 12344 237 213834 1.11 39.41 384 26.773948171411 32.68019850488 10881.144610001 308968.31809269
111	568044 13227 237 213834 1.11 39.41 384 -0.044719198679743 3.2150695847917 202.66840611508 509.59638760448
110	581271 12337 237 213834 1.11 39.41 384 37.222221907592 57.45393190126 15179.194972584 610168.20219806
112	593608 7008 237 213834 1.11 39.41 384 5 5 1920 9600
124	600616 15699 1172 214219 1.265753012633 39.465757264833 383 0.099988728806 0.100001869131 38.300006102273 3.8300012282922
123	616315 15736 1056 214097 1.254916187617 39.454855200932 383 0.099897850073 0.100092862827 38.299953863388 3.8299914164456
122	632051 10774 1172 214219 1.265753012633 39.465757264833 383 5 5 1915 9575
121	642825 10785 1056 214097 1.254916187617 39.454855200932 383 5 5 1915 9575
120	653610 581 5107 211463 2 39 38 0 0 0 0
119	654191 810 5107 211463 2 39 38 0.022968 0.02625 0.994218 0.026022841524
118	655001 581 5107 211463 2 39 38 5 5 190 950
139	655582 12834 238 213835 1.11 39.41 384 -1.4213470413689 1.8223727204456 18.437424289077 383.32379631201
138	668416 12894 238 213835 1.11 39.41 384 -1.2279810906456 1.6777809561674 25.067347149031 265.3524854532
137	681310 8544 238 213835 1.11 39.41 384 36.55 36.55 14035.2 512986.56
136	689854 12352 238 213835 1.11 39.41 384 77.439864349365 1151.6378541127 235180.51461193 180815482.32648
135	702206 12338 238 213835 1.11 39.41 384 26.805603031405 30.608006808056 10770.643919421 302371.0620002
133	714544 13255 238 213835 1.11 39.41 384 -0.032981680885449 2.0783228438073 110.04635723012 192.5166698756
132	727799 12324 238 213835 1.11 39.41 384 37.222221374512 48.161394196546 14634.597021409 559657.78326067
134	740123 7008 238 213835 1.11 39.41 384 6 6 2304 13824
146	747131 15680 1312 213791 1.305163425141 39.405165771296 382 0.099988730094 0.100001869202 38.200004196228 3.8200008470798
145	762811 15738 1062 214103 1.254916325119 39.454855375327 383 0.099897850073 0.100092862826 38.299953900281 3.8299914238242
144	778549 10759 1312 213791 1.305163425141 39.405165771296 382 6 6 2292 13752
143	789308 10787 1062 214103 1.254916325119 39.454855375327 383 6 6 2298 13788
142	800095 581 5108 211464 2 39 38 0 0 0 0
141	800676 810 5108 211464 2 39 38 0.022969 0.02625 0.994219 0.026022887461
140	801486 581 5108 211464 2 39 38 6 6 228 1368
161	802067 12834 239 213836 1.11 39.41 384 -1.3674315724168 1.547257886955 7.0104441311388 349.96616301151
160	814901 12899 239 213836 1.11 39.41 384 -1.196663167643 1.3745075485527 11.064143715245 244.79758081318
159	827800 8544 239 213836 1.11 39.41 384 36.55 36.55 14035.2 512986.56
158	836344 12343 239 213836 1.11 39.41 384 36.217641067505 1106.0713088062 219238.25571186 161858629.89121
157	848687 12334 239 213836 1.11 39.41 384 26.835987850194 29.30914399239 10726.707459476 299823.85817484
155	861021 13337 239 213836 1.11 39.41 384 -0.032912828676832 1.4156031450218 43.685786473508 42.27535571746
154	874358 12340 239 213836 1.11 39.41 384 37.222222738003 41.53837192227 14405.38017087 540601.75457677
156	886698 7008 239 213836 1.11 39.41 384 7 7 2688 18816
168	893706 15730 975 214010 1.254436812592 39.454427915013 383 0.099988703915 0.100001869451 38.299992952494 3.8299985984601
167	909436 15723 1068 214109 1.254916462622 39.454855527509 383 0.099897850073 0.100092862826 38.29995391496 3.82999142676
166	925159 10787 975 214010 1.254436812592 39.454427915013 383 7 7 2681 18767
165	935946 10778 1068 214109 1.254916462622 39.454855527509 383 7 7 2681 18767
164	946724 581 5109 211465 2 39 38 0 0 0 0
163	947305 810 5109 211465 2 39 38 0.022969 0.02625 0.994219 0.026022887461
162	948115 581 5109 211465 2 39 38 7 7 266 1862
88	948696 11980 236 214249 1.11 39.49 385 0 37.452891988196 13056.527161825 469778.7609812
89	960676 12917 236 214249 1.11 39.49 385 -5.9997673231312 0.052129820560495 -375.64722404262 1846.003613476
90	973593 6642 236 214249 1.11 39.49 385 4 4 1540 6160
91	980235 11990 236 214249 1.11 39.49 385 26.749284686787 34.684573507068 11118.482191762 322799.31604218
92	992225 11974 236 214249 1.11 39.49 385 159.88431472778 1268.054858469 269340.6373663 226653692.76575
93	1004199 8182 236 214249 1.11 39.49 385 36.55 36.55 14071.75 514322.4625
94	1012381 12485 236 214249 1.11 39.49 385 -1.2930775215906 2.4999999999999 61.488351200624 382.1309291235
95	1024866 12439 236 214249 1.11 39.49 385 -1.5180070614895 3.1945245895728 49.361329041313 559.97060626524
96	1037305 543 5106 211462 2 39 38 4 4 152 608
97	1037848 772 5106 211462 2 39 38 0.022969 0.02625 0.994219 0.026022887461
98	1038620 543 5106 211462 2 39 38 0 0 0 0
99	1039163 10400 1050 214091 1.254916050114 39.454854995588 383 4 4 1532 6128
100	1049563 10752 1246 213725 1.303554150136 39.403556392189 382 4 4 1528 6112
101	1060315 15721 1050 214091 1.254916050114 39.454854995588 383 0.099897850073 0.100092862824 38.299953795547 3.8299914028774
102	1076036 15667 1246 213725 1.303554150136 39.403556392189 382 0.099988709832 0.100001869176 38.200004092126 3.8200008262614
