file 1162524 1501689524                                         
version 2
run SinusoidalPosInjectionAttack-95-20170802-17:58:23-477
attr CACCSpacing 20
attr attackAcc -30
attr attackPos 5
attr attackSpeed 150
attr attackStart 30
attr attacker 2
attr beaconInterval 0.1
attr configname SinusoidalPosInjectionAttack
attr controller 3
attr datetime 20170802-17:58:23
attr experiment SinusoidalPosInjectionAttack
attr fakeAcc "(2 == 4)"
attr fakePos "(2 == 2)"
attr fakeSpeed "(2 == 3)"
attr inifile omnetpp_95.ini
attr iterationvars "$attacker=2, $attackSpeed=150, $attackPos=5, $attackAcc=-30, $leaderSpeed=100, $controller=3, $CACCSpacing=20, $sController=\"CONSENSUS\", $attackStart=30, $0=15, $1=0.8, $nCars=8, $platoonSize=8, $nLanes=1, $beaconInterval=0.1, $priority=2, $packetSize=200, $ploegH=0.5, $leaderHeadway=1.2, $fakeSpeed=(2 == 3), $fakeAcc=(2 == 4), $fakePos=(2 == 2)"
attr iterationvarsf attacker=2,attackSpeed=150,attackPos=5,attackAcc=-30,leaderSpeed=100,controller=3,CACCSpacing=20,sController=CONSENSUS,attackStart=30,15,0.8,nCars=8,platoonSize=8,nLanes=1,beaconInterval=0.1,priority=2,packetSize=200,ploegH=0.5,leaderHeadway=1.2,fakeSpeed=(2_==_3),fakeAcc=(2_==_4),fakePos=(2_==_2)-
attr leaderHeadway 1.2
attr leaderSpeed 100
attr measurement "$attacker=2, $attackSpeed=150, $attackPos=5, $attackAcc=-30, $leaderSpeed=100, $controller=3, $CACCSpacing=20, $sController=\"CONSENSUS\", $attackStart=30, $0=15, $1=0.8, $nCars=8, $platoonSize=8, $nLanes=1, $beaconInterval=0.1, $priority=2, $packetSize=200, $ploegH=0.5, $leaderHeadway=1.2, $fakeSpeed=(2 == 3), $fakeAcc=(2 == 4), $fakePos=(2 == 2)"
attr nCars 8
attr nLanes 1
attr network scenario
attr packetSize 200
attr platoonSize 8
attr ploegH 0.5
attr priority 2
attr processid 477
attr repetition 0
attr replication #0
attr resultdir results
attr runnumber 95
attr sController "\"CONSENSUS\""
attr seedset 0
param **.coreDebug false
param **.debug false
param **.headway 0.1s
param **.numberOfCars 8
param **.numberOfCarsPerPlatoon 8
param **.numberOfLanes 1
param **.numericController 3
param **.traffic.nCars 8
param **.traffic.nLanes 1
param **.traffic.platoonInsertDistance 15m
param **.traffic.platoonInsertHeadway 0.8s
param **.traffic.platoonInsertSpeed 100kmph
param **.traffic.platoonInsertTime "1 s"
param **.traffic.platoonLeaderHeadway 1.2s
param **.traffic.platoonSize 8
param **.traffic.platooningVType "\"vtypeauto\""
param **.traffic_type "\"PlatoonsTrafficManager\""
param *.**.nic.mac1609_4.bitrate 6Mbps
param *.**.nic.mac1609_4.txPower 100mW
param *.**.nic.mac1609_4.useServiceChannel false
param *.**.nic.phy80211p.analogueModels "xmldoc(\"config.xml\")"
param *.**.nic.phy80211p.decider "xmldoc(\"config.xml\")"
param *.**.nic.phy80211p.maxTXPower 100mW
param *.**.nic.phy80211p.sensitivity -94dBm
param *.**.nic.phy80211p.thermalNoise -95dBm
param *.**.nic.phy80211p.usePropagationDelay true
param *.**.nic.phy80211p.useThermalNoise true
param *.annotations.draw false
param *.connectionManager.alpha 2.0
param *.connectionManager.carrierFrequency "5.890e9 Hz"
param *.connectionManager.pMax 100mW
param *.connectionManager.sat -94dBm
param *.connectionManager.sendDirect true
param *.manager.autoShutdown true
param *.manager.commandLine "\"sumo --remote-port $port --seed $seed --configuration-file $configFile\""
param *.manager.configFile "\"./sumocfg/freeway.sumo.cfg\""
param *.manager.host "\"localhost\""
param *.manager.margin 25
param *.manager.moduleDisplayString "\"\""
param *.manager.moduleName "\"node\""
param *.manager.moduleType "\"Car\""
param *.manager.updateInterval 0.01s
param *.node[*].appl.attackStart 30s
param *.node[*].appl.attackerType 2
param *.node[*].appl.simulationDuration "60 s"
param *.node[*].appl_type "\"SimplePlatooningApp\""
param *.node[*].helper.nCars 8
param *.node[*].helper.nLanes 1
param *.node[*].helper.platoonSize 8
param *.node[*].helper_type "\"PositionHelper\""
param *.node[*].mobility.x 0
param *.node[*].mobility.y 0
param *.node[*].mobility.z 1.895
param *.node[*].prot.attackStart 30s
param *.node[*].prot.attackerType 2
param *.node[*].prot.attackingNode 3
param *.node[*].prot.beaconingInterval 0.1s
param *.node[*].prot.fakeAcc "(2 == 4)"
param *.node[*].prot.fakePos "(2 == 2)"
param *.node[*].prot.fakeSpeed "(2 == 3)"
param *.node[*].prot.maliciousAcc "-30 mpss"
param *.node[*].prot.maliciousSpeed 150kmph
param *.node[*].prot.packetSize 200
param *.node[*].prot.priority 2
param *.node[*].prot.shiftX "5 m"
param *.node[*].prot.useControllerAcceleration true
param *.node[*].protocol_type "\"SimplePlatooningBeaconing\""
param *.node[*].scenario.accHeadway 0.1s
param *.node[*].scenario.caccC1 0.5
param *.node[*].scenario.caccOmegaN "0.2 Hz"
param *.node[*].scenario.caccSpacing 20m
param *.node[*].scenario.caccXi 1
param *.node[*].scenario.controller "\"CONSENSUS\""
param *.node[*].scenario.engineTau "0.5 s"
param *.node[*].scenario.leaderHeadway 1.2s
param *.node[*].scenario.leaderOscillationFrequency "0.2 Hz"
param *.node[*].scenario.leaderSpeed 100kmph
param *.node[*].scenario.oscillationAmplitude "10 kmph"
param *.node[*].scenario.ploegH 0.5s
param *.node[*].scenario.ploegKd 0.7
param *.node[*].scenario.ploegKp 0.2
param *.node[*].scenario.startOscillating "5 s"
param *.node[*].scenario.useRealisticEngine false
param *.node[*].scenario_type "\"SinusoidalScenario\""
param *.node[*].unicast.packetLossRate 0
param *.obstacles.debug false
param *.playgroundSizeX 65000m
param *.playgroundSizeY 25000m
param *.playgroundSizeZ 50m
param *.world.use2D false
param *.world.useTorus false

vector 0  scenario.node[0].appl  distance  ETV
vector 1  scenario.node[0].appl  relativeSpeed  ETV
vector 2  scenario.node[0].appl  nodeId  ETV
vector 6  scenario.node[0].appl  acceleration  ETV
vector 7  scenario.node[0].appl  controllerAcceleration  ETV
vector 3  scenario.node[0].appl  speed  ETV
vector 4  scenario.node[0].appl  posx  ETV
vector 5  scenario.node[0].appl  posy  ETV
vector 22  scenario.node[1].appl  distance  ETV
vector 23  scenario.node[1].appl  relativeSpeed  ETV
vector 24  scenario.node[1].appl  nodeId  ETV
vector 28  scenario.node[1].appl  acceleration  ETV
vector 29  scenario.node[1].appl  controllerAcceleration  ETV
vector 25  scenario.node[1].appl  speed  ETV
vector 26  scenario.node[1].appl  posx  ETV
vector 27  scenario.node[1].appl  posy  ETV
vector 44  scenario.node[2].appl  distance  ETV
vector 45  scenario.node[2].appl  relativeSpeed  ETV
vector 46  scenario.node[2].appl  nodeId  ETV
vector 50  scenario.node[2].appl  acceleration  ETV
vector 51  scenario.node[2].appl  controllerAcceleration  ETV
vector 47  scenario.node[2].appl  speed  ETV
vector 48  scenario.node[2].appl  posx  ETV
vector 49  scenario.node[2].appl  posy  ETV
vector 66  scenario.node[3].appl  distance  ETV
vector 67  scenario.node[3].appl  relativeSpeed  ETV
vector 68  scenario.node[3].appl  nodeId  ETV
vector 72  scenario.node[3].appl  acceleration  ETV
vector 73  scenario.node[3].appl  controllerAcceleration  ETV
vector 69  scenario.node[3].appl  speed  ETV
vector 70  scenario.node[3].appl  posx  ETV
vector 71  scenario.node[3].appl  posy  ETV
vector 88  scenario.node[4].appl  distance  ETV
vector 89  scenario.node[4].appl  relativeSpeed  ETV
vector 90  scenario.node[4].appl  nodeId  ETV
vector 94  scenario.node[4].appl  acceleration  ETV
vector 95  scenario.node[4].appl  controllerAcceleration  ETV
vector 91  scenario.node[4].appl  speed  ETV
vector 92  scenario.node[4].appl  posx  ETV
vector 93  scenario.node[4].appl  posy  ETV
vector 110  scenario.node[5].appl  distance  ETV
vector 111  scenario.node[5].appl  relativeSpeed  ETV
vector 112  scenario.node[5].appl  nodeId  ETV
vector 116  scenario.node[5].appl  acceleration  ETV
vector 117  scenario.node[5].appl  controllerAcceleration  ETV
vector 113  scenario.node[5].appl  speed  ETV
vector 114  scenario.node[5].appl  posx  ETV
vector 115  scenario.node[5].appl  posy  ETV
vector 132  scenario.node[6].appl  distance  ETV
vector 133  scenario.node[6].appl  relativeSpeed  ETV
vector 134  scenario.node[6].appl  nodeId  ETV
vector 138  scenario.node[6].appl  acceleration  ETV
vector 139  scenario.node[6].appl  controllerAcceleration  ETV
vector 135  scenario.node[6].appl  speed  ETV
vector 136  scenario.node[6].appl  posx  ETV
vector 137  scenario.node[6].appl  posy  ETV
vector 154  scenario.node[7].appl  distance  ETV
vector 155  scenario.node[7].appl  relativeSpeed  ETV
vector 156  scenario.node[7].appl  nodeId  ETV
vector 160  scenario.node[7].appl  acceleration  ETV
vector 161  scenario.node[7].appl  controllerAcceleration  ETV
vector 157  scenario.node[7].appl  speed  ETV
vector 158  scenario.node[7].appl  posx  ETV
vector 159  scenario.node[7].appl  posy  ETV
vector 80  scenario.node[3].prot  frontDelay  ETV
vector 78  scenario.node[3].prot  frontDelayId  ETV
vector 58  scenario.node[2].prot  frontDelay  ETV
vector 56  scenario.node[2].prot  frontDelayId  ETV
vector 168  scenario.node[7].prot  frontDelay  ETV
vector 166  scenario.node[7].prot  frontDelayId  ETV
vector 35  scenario.node[1].prot  leaderDelay  ETV
vector 33  scenario.node[1].prot  leaderDelayId  ETV
vector 36  scenario.node[1].prot  frontDelay  ETV
vector 34  scenario.node[1].prot  frontDelayId  ETV
vector 57  scenario.node[2].prot  leaderDelay  ETV
vector 55  scenario.node[2].prot  leaderDelayId  ETV
vector 79  scenario.node[3].prot  leaderDelay  ETV
vector 77  scenario.node[3].prot  leaderDelayId  ETV
vector 101  scenario.node[4].prot  leaderDelay  ETV
vector 99  scenario.node[4].prot  leaderDelayId  ETV
vector 123  scenario.node[5].prot  leaderDelay  ETV
vector 121  scenario.node[5].prot  leaderDelayId  ETV
vector 145  scenario.node[6].prot  leaderDelay  ETV
vector 143  scenario.node[6].prot  leaderDelayId  ETV
vector 167  scenario.node[7].prot  leaderDelay  ETV
vector 165  scenario.node[7].prot  leaderDelayId  ETV
vector 124  scenario.node[5].prot  frontDelay  ETV
vector 122  scenario.node[5].prot  frontDelayId  ETV
vector 102  scenario.node[4].prot  frontDelay  ETV
vector 100  scenario.node[4].prot  frontDelayId  ETV
vector 146  scenario.node[6].prot  frontDelay  ETV
vector 144  scenario.node[6].prot  frontDelayId  ETV
vector 8  scenario.node[0].prot  nodeId  ETV
vector 9  scenario.node[0].prot  busyTime  ETV
vector 10  scenario.node[0].prot  collisions  ETV
vector 30  scenario.node[1].prot  nodeId  ETV
vector 31  scenario.node[1].prot  busyTime  ETV
vector 32  scenario.node[1].prot  collisions  ETV
vector 52  scenario.node[2].prot  nodeId  ETV
vector 53  scenario.node[2].prot  busyTime  ETV
vector 54  scenario.node[2].prot  collisions  ETV
vector 74  scenario.node[3].prot  nodeId  ETV
vector 75  scenario.node[3].prot  busyTime  ETV
vector 76  scenario.node[3].prot  collisions  ETV
vector 96  scenario.node[4].prot  nodeId  ETV
vector 97  scenario.node[4].prot  busyTime  ETV
vector 98  scenario.node[4].prot  collisions  ETV
vector 118  scenario.node[5].prot  nodeId  ETV
vector 119  scenario.node[5].prot  busyTime  ETV
vector 120  scenario.node[5].prot  collisions  ETV
vector 140  scenario.node[6].prot  nodeId  ETV
vector 141  scenario.node[6].prot  busyTime  ETV
vector 142  scenario.node[6].prot  collisions  ETV
vector 162  scenario.node[7].prot  nodeId  ETV
vector 163  scenario.node[7].prot  busyTime  ETV
vector 164  scenario.node[7].prot  collisions  ETV
7	11282 9645 232 227770 1.11 41.91 409 -1.5 1.5 15.082133525134 672.54477797466
6	20927 12870 232 227770 1.11 41.91 409 -1.4722746794938 1.4513433675031 7.1972461304664 453.0158745723
5	33797 8301 232 227770 1.11 41.91 409 36.55 36.55 14948.95 546384.1225
4	42098 12352 232 227770 1.11 41.91 409 324.77320022556 1461.2895702468 365957.6393391 371684608.4842
3	54450 12347 232 227770 1.11 41.91 409 26.487967210471 29.742492528104 11393.182740678 317674.27243009
1	66797 6665 232 227770 1.11 41.91 409 0 0 0 0
0	73462 7074 232 227770 1.11 41.91 409 -1 -1 -409 409
2	80536 6665 232 227770 1.11 41.91 409 0 0 0 0
10	87201 573 5102 222614 2 41 40 0 0 0 0
9	87774 774 5102 222614 2 41 40 0.022969 0.02625 1.046719 0.027401012461
8	88548 533 5102 222614 2 41 40 0 0 0 0
29	89081 13217 233 227771 1.11 41.91 409 -1.9741825330129 1.9679239451503 2.9443807359891 757.86819885124
28	102298 13249 233 227771 1.11 41.91 409 -1.7218030083651 1.712778885739 -4.9498746809185 524.75499965305
27	115547 8710 233 227771 1.11 41.91 409 36.55 36.55 14948.95 546384.1225
26	124257 12755 233 227771 1.11 41.91 409 283.55097122192 1419.8732635957 349073.65137771 342198713.44233
25	137012 12751 233 227771 1.11 41.91 409 26.386874114713 29.733432791865 11390.815513245 317604.15693908
23	149763 13379 233 227771 1.11 41.91 409 -1.2227231725612 1.2115523892858 2.2952549714566 290.46576962127
22	163142 12752 233 227771 1.11 41.91 409 36.176837498592 38.677065071259 15247.940616837 568659.08868445
24	175894 7074 233 227771 1.11 41.91 409 1 1 409 409
36	182968 16304 1032 227457 1.254915637607 41.854870175753 407 0.099897646547 0.100092862866 40.699969388219 4.0699945751343
35	199272 16304 1032 227457 1.254915637607 41.854870175753 407 0.099897646547 0.100092862866 40.699969388219 4.0699945751343
34	215576 11058 1032 227457 1.254915637607 41.854870175753 407 1 1 407 407
33	226634 11058 1032 227457 1.254915637607 41.854870175753 407 1 1 407 407
32	237692 573 5103 222615 2 41 40 0 0 0 0
31	238265 814 5103 222615 2 41 40 0.022969 0.02625 1.046719 0.027401012461
30	239079 573 5103 222615 2 41 40 1 1 40 40
51	239652 13262 234 227772 1.11 41.91 409 -1.470892066307 1.4592398965322 2.6082124850214 435.52291745878
50	252914 13321 234 227772 1.11 41.91 409 -1.2930964399892 1.2698646709769 -3.3229450667594 295.50283736728
49	266235 8710 234 227772 1.11 41.91 409 36.55 36.55 14948.95 546384.1225
48	274945 12757 234 227772 1.11 41.91 409 242.32875747681 1378.8977891723 332180.80242265 314075613.85148
47	287702 12741 234 227772 1.11 41.91 409 26.741235448983 29.400439162132 11393.342789474 317589.72719187
45	300443 13520 234 227772 1.11 41.91 409 -0.38764012536485 0.36023546300099 -2.4777774817275 22.718171455041
44	313963 12746 234 227772 1.11 41.91 409 36.939715517707 37.874817987905 15256.899500587 569146.98303938
46	326709 7074 234 227772 1.11 41.91 409 2 2 818 1636
58	333783 16328 900 227319 1.229661125079 41.829654721582 407 0.099988643178 0.100001869417 40.699995446576 4.0699990977212
57	350111 16309 1038 227463 1.254915775109 41.85487031247 407 0.099897646454 0.10009286282 40.699969387434 4.0699945749773
56	366420 11073 900 227319 1.229661125079 41.829654721582 407 2 2 814 1628
55	377493 11068 1038 227463 1.254915775109 41.85487031247 407 2 2 814 1628
54	388561 573 5104 222616 2 41 40 0 0 0 0
53	389134 814 5104 222616 2 41 40 0.022969 0.02625 1.046719 0.027401012461
52	389948 573 5104 222616 2 41 40 2 2 80 160
73	390521 13244 235 227773 1.11 41.91 409 -1.5377957074449 1.5284858396269 3.2999732281094 470.16662127681
72	403765 13291 235 227773 1.11 41.91 409 -1.3294202106678 1.3186880831064 -2.9705844616252 318.59663264321
71	417056 8710 235 227773 1.11 41.91 409 36.55 36.55 14948.95 546384.1225
70	425766 12747 235 227773 1.11 41.91 409 201.1065284729 1337.6272500383 315288.74559866 287343886.57503
69	438513 12746 235 227773 1.11 41.91 409 26.694691593093 29.342713140305 11392.871491573 317575.13932115
67	451259 13882 235 227773 1.11 41.91 409 -0.10270671785546 0.12549698694204 0.50452735096222 1.2571942841904
66	465141 12748 235 227773 1.11 41.91 409 37.170671445763 37.545179653639 15256.047398028 569067.6701053
68	477889 7074 235 227773 1.11 41.91 409 3 3 1227 3681
80	484963 16324 832 227257 1.213907987576 41.813901585774 407 0.099988651732 0.100001869191 40.699995448271 4.0699990980589
79	501287 16336 1044 227469 1.254915912612 41.85487045014 407 0.09989764645 0.100092862807 40.699969387601 4.0699945750107
78	517623 11075 832 227257 1.213907987576 41.813901585774 407 3 3 1221 3663
77	528698 11074 1044 227469 1.254915912612 41.85487045014 407 3 3 1221 3663
76	539772 573 5105 222617 2 41 40 0 0 0 0
75	540345 814 5105 222617 2 41 40 0.022968 0.02625 1.046718 0.027400966524
74	541159 573 5105 222617 2 41 40 3 3 120 360
117	541732 13682 237 227775 1.11 41.91 409 -1.4308156633116 1.8240025713337 41.303167200339 423.30631497692
116	555414 13729 237 227775 1.11 41.91 409 -1.2579553277796 1.6222436495372 32.33158229947 295.62390692014
115	569143 9119 237 227775 1.11 41.91 409 36.55 36.55 14948.95 546384.1225
114	578262 13161 237 227775 1.11 41.91 409 118.66208572388 1275.3072330804 282209.824899 239733502.40425
113	591423 13167 237 227775 1.11 41.91 409 26.773571580292 31.555162536765 11595.345858952 329273.23198969
111	604590 14053 237 227775 1.11 41.91 409 -0.044719198679743 2.209348220142 170.91639637122 285.00017870681
110	618643 13164 237 227775 1.11 41.91 409 37.222221907592 54.305162646191 16265.809477676 656794.03420899
112	631807 7483 237 227775 1.11 41.91 409 5 5 2045 10225
124	639290 16709 1172 227603 1.265753012633 41.865746709796 407 0.099988639153 0.100001869131 40.699995547236 4.0699991178538
123	655999 16734 1056 227481 1.254916187617 41.85487065872 407 0.099897645288 0.100092862827 40.699969321176 4.0699945617257
122	672733 11473 1172 227603 1.265753012633 41.865746709796 407 5 5 2035 10175
121	684206 11479 1056 227481 1.254916187617 41.85487065872 407 5 5 2035 10175
120	695685 613 5107 222619 2 41 40 0 0 0 0
119	696298 854 5107 222619 2 41 40 0.022968 0.02625 1.046718 0.027400966524
118	697152 613 5107 222619 2 41 40 5 5 200 1000
139	697765 13677 238 227776 1.11 41.91 409 -1.4213470413689 1.6958096929921 23.294383276131 410.43553762276
138	711442 13746 238 227776 1.11 41.91 409 -1.2279810906456 1.5382463575236 19.993156780509 277.35944724968
137	725188 9119 238 227776 1.11 41.91 409 36.55 36.55 14948.95 546384.1225
136	734307 13173 238 227776 1.11 41.91 409 77.439864349365 1222.9340301003 264852.66321384 216048078.72645
135	747480 13162 238 227776 1.11 41.91 409 26.805602779223 30.079806383932 11483.412700576 322677.84059527
133	760642 14091 238 227776 1.11 41.91 409 -0.032981680885449 1.4757041236695 111.60984255346 140.3687680924
132	774733 13149 238 227776 1.11 41.91 409 37.222221374512 48.348988963608 15718.923021994 607001.84912634
134	787882 7483 238 227776 1.11 41.91 409 6 6 2454 14724
146	795365 16731 1312 227732 1.305163425141 41.905156912123 407 0.099988640763 0.100001869202 40.699995337055 4.069999075817
145	812096 16733 1062 227487 1.254916325119 41.854870833176 407 0.099897645699 0.100092862826 40.69996935813 4.0699945691165
144	828829 11483 1312 227732 1.305163425141 41.905156912123 407 6 6 2442 14652
143	840312 11471 1062 227487 1.254916325119 41.854870833176 407 6 6 2442 14652
142	851783 613 5108 222620 2 41 40 0 0 0 0
141	852396 854 5108 222620 2 41 40 0.022969 0.02625 1.046719 0.027401012461
140	853250 613 5108 222620 2 41 40 6 6 240 1440
161	853863 13682 239 227777 1.11 41.91 409 -1.3674315724168 1.6122254534423 15.923798700683 380.48415914104
160	867545 13757 239 227777 1.11 41.91 409 -1.196663167643 1.3449435460178 8.9176377178045 261.29554276395
159	881302 9119 239 227777 1.11 41.91 409 36.55 36.55 14948.95 546384.1225
158	890421 13170 239 227777 1.11 41.91 409 36.217641067505 1175.888200153 247789.61891577 194476624.98951
157	903591 13156 239 227777 1.11 41.91 409 26.835987850139 29.202803475629 11424.784157034 319313.38613773
155	916747 14187 239 227777 1.11 41.91 409 -0.032919801568479 1.1092713568324 58.428611974125 50.255908558937
154	930934 13159 239 227777 1.11 41.91 409 37.222222738003 43.023367892923 15425.871727193 582350.17359422
156	944093 7483 239 227777 1.11 41.91 409 7 7 2863 20041
168	951576 16729 975 227394 1.254436812592 41.854430399223 407 0.099988646959 0.100001869451 40.699995436704 4.0699990957459
167	968305 16725 1068 227493 1.254916462622 41.854870989879 407 0.099897646069 0.100092862826 40.69996937733 4.0699945729565
166	985030 11483 975 227394 1.254436812592 41.854430399223 407 7 7 2849 19943
165	996513 11477 1068 227493 1.254916462622 41.854870989879 407 7 7 2849 19943
164	1007990 613 5109 222621 2 41 40 0 0 0 0
163	1008603 854 5109 222621 2 41 40 0.022969 0.02625 1.046719 0.027401012461
162	1009457 613 5109 222621 2 41 40 7 7 280 1960
88	1010070 12779 236 227778 1.11 41.91 410 0 37.452891988196 13545.160709337 482662.1397374
89	1022849 13747 236 227778 1.11 41.91 410 -4.4309864557092 0.052129820560495 -378.20003126121 1417.7770874013
90	1036596 7092 236 227778 1.11 41.91 410 4 4 1640 6560
91	1043688 12793 236 227778 1.11 41.91 410 26.749284686787 32.997091555264 11798.513141153 340691.14965976
92	1056481 12769 236 227778 1.11 41.91 410 159.88431472778 1333.6304819748 301448.69134631 267980606.81546
93	1069250 8732 236 227778 1.11 41.91 410 36.55 36.55 14985.5 547720.025
94	1077982 13322 236 227778 1.11 41.91 410 -1.2930775215906 2.4120749437103 42.034963692872 366.21487319046
95	1091304 13274 236 227778 1.11 41.91 410 -1.5061623906333 2.6919732691815 37.559307003728 521.46914817556
96	1104578 573 5106 222618 2 41 40 4 4 160 640
97	1105151 814 5106 222618 2 41 40 0.022969 0.02625 1.046719 0.027401012461
98	1105965 573 5106 222618 2 41 40 0 0 0 0
99	1106538 11070 1050 227475 1.254916050114 41.854870464356 407 4 4 1628 6512
100	1117608 11472 1246 227666 1.303554150136 41.90356054295 407 4 4 1628 6512
101	1129080 16730 1050 227475 1.254916050114 41.854870464356 407 0.099897644977 0.100092862824 40.699969264315 4.0699945503535
102	1145810 16714 1246 227666 1.303554150136 41.90356054295 407 0.099988656773 0.100001869176 40.700008242887 4.0700016568597
