file 1321276 1501688606                                         
version 2
run SinusoidalPosInjectionAttack-37-20170802-17:43:02-101713
attr CACCSpacing 20
attr attackAcc -30
attr attackPos 3
attr attackSpeed 150
attr attackStart 30
attr attacker 2
attr beaconInterval 0.1
attr configname SinusoidalPosInjectionAttack
attr controller 3
attr datetime 20170802-17:43:02
attr experiment SinusoidalPosInjectionAttack
attr fakeAcc "(2 == 4)"
attr fakePos "(2 == 2)"
attr fakeSpeed "(2 == 3)"
attr inifile omnetpp_37.ini
attr iterationvars "$attacker=2, $attackSpeed=150, $attackPos=3, $attackAcc=-30, $leaderSpeed=100, $controller=3, $CACCSpacing=20, $sController=\"CONSENSUS\", $attackStart=30, $0=15, $1=0.8, $nCars=8, $platoonSize=8, $nLanes=1, $beaconInterval=0.1, $priority=2, $packetSize=200, $ploegH=0.5, $leaderHeadway=1.2, $fakeSpeed=(2 == 3), $fakeAcc=(2 == 4), $fakePos=(2 == 2)"
attr iterationvarsf attacker=2,attackSpeed=150,attackPos=3,attackAcc=-30,leaderSpeed=100,controller=3,CACCSpacing=20,sController=CONSENSUS,attackStart=30,15,0.8,nCars=8,platoonSize=8,nLanes=1,beaconInterval=0.1,priority=2,packetSize=200,ploegH=0.5,leaderHeadway=1.2,fakeSpeed=(2_==_3),fakeAcc=(2_==_4),fakePos=(2_==_2)-
attr leaderHeadway 1.2
attr leaderSpeed 100
attr measurement "$attacker=2, $attackSpeed=150, $attackPos=3, $attackAcc=-30, $leaderSpeed=100, $controller=3, $CACCSpacing=20, $sController=\"CONSENSUS\", $attackStart=30, $0=15, $1=0.8, $nCars=8, $platoonSize=8, $nLanes=1, $beaconInterval=0.1, $priority=2, $packetSize=200, $ploegH=0.5, $leaderHeadway=1.2, $fakeSpeed=(2 == 3), $fakeAcc=(2 == 4), $fakePos=(2 == 2)"
attr nCars 8
attr nLanes 1
attr network scenario
attr packetSize 200
attr platoonSize 8
attr ploegH 0.5
attr priority 2
attr processid 101713
attr repetition 2
attr replication #2
attr resultdir results
attr runnumber 37
attr sController "\"CONSENSUS\""
attr seedset 2
param **.coreDebug false
param **.debug false
param **.headway 0.1s
param **.numberOfCars 8
param **.numberOfCarsPerPlatoon 8
param **.numberOfLanes 1
param **.numericController 3
param **.traffic.nCars 8
param **.traffic.nLanes 1
param **.traffic.platoonInsertDistance 15m
param **.traffic.platoonInsertHeadway 0.8s
param **.traffic.platoonInsertSpeed 100kmph
param **.traffic.platoonInsertTime "1 s"
param **.traffic.platoonLeaderHeadway 1.2s
param **.traffic.platoonSize 8
param **.traffic.platooningVType "\"vtypeauto\""
param **.traffic_type "\"PlatoonsTrafficManager\""
param *.**.nic.mac1609_4.bitrate 6Mbps
param *.**.nic.mac1609_4.txPower 100mW
param *.**.nic.mac1609_4.useServiceChannel false
param *.**.nic.phy80211p.analogueModels "xmldoc(\"config.xml\")"
param *.**.nic.phy80211p.decider "xmldoc(\"config.xml\")"
param *.**.nic.phy80211p.maxTXPower 100mW
param *.**.nic.phy80211p.sensitivity -94dBm
param *.**.nic.phy80211p.thermalNoise -95dBm
param *.**.nic.phy80211p.usePropagationDelay true
param *.**.nic.phy80211p.useThermalNoise true
param *.annotations.draw false
param *.connectionManager.alpha 2.0
param *.connectionManager.carrierFrequency "5.890e9 Hz"
param *.connectionManager.pMax 100mW
param *.connectionManager.sat -94dBm
param *.connectionManager.sendDirect true
param *.manager.autoShutdown true
param *.manager.commandLine "\"sumo --remote-port $port --seed $seed --configuration-file $configFile\""
param *.manager.configFile "\"./sumocfg/freeway.sumo.cfg\""
param *.manager.host "\"localhost\""
param *.manager.margin 25
param *.manager.moduleDisplayString "\"\""
param *.manager.moduleName "\"node\""
param *.manager.moduleType "\"Car\""
param *.manager.updateInterval 0.01s
param *.node[*].appl.attackStart 30s
param *.node[*].appl.attackerType 2
param *.node[*].appl.simulationDuration "60 s"
param *.node[*].appl_type "\"SimplePlatooningApp\""
param *.node[*].helper.nCars 8
param *.node[*].helper.nLanes 1
param *.node[*].helper.platoonSize 8
param *.node[*].helper_type "\"PositionHelper\""
param *.node[*].mobility.x 0
param *.node[*].mobility.y 0
param *.node[*].mobility.z 1.895
param *.node[*].prot.attackStart 30s
param *.node[*].prot.attackerType 2
param *.node[*].prot.attackingNode 3
param *.node[*].prot.beaconingInterval 0.1s
param *.node[*].prot.fakeAcc "(2 == 4)"
param *.node[*].prot.fakePos "(2 == 2)"
param *.node[*].prot.fakeSpeed "(2 == 3)"
param *.node[*].prot.maliciousAcc "-30 mpss"
param *.node[*].prot.maliciousSpeed 150kmph
param *.node[*].prot.packetSize 200
param *.node[*].prot.priority 2
param *.node[*].prot.shiftX "3 m"
param *.node[*].prot.useControllerAcceleration true
param *.node[*].protocol_type "\"SimplePlatooningBeaconing\""
param *.node[*].scenario.accHeadway 0.1s
param *.node[*].scenario.caccC1 0.5
param *.node[*].scenario.caccOmegaN "0.2 Hz"
param *.node[*].scenario.caccSpacing 20m
param *.node[*].scenario.caccXi 1
param *.node[*].scenario.controller "\"CONSENSUS\""
param *.node[*].scenario.engineTau "0.5 s"
param *.node[*].scenario.leaderHeadway 1.2s
param *.node[*].scenario.leaderOscillationFrequency "0.2 Hz"
param *.node[*].scenario.leaderSpeed 100kmph
param *.node[*].scenario.oscillationAmplitude "10 kmph"
param *.node[*].scenario.ploegH 0.5s
param *.node[*].scenario.ploegKd 0.7
param *.node[*].scenario.ploegKp 0.2
param *.node[*].scenario.startOscillating "5 s"
param *.node[*].scenario.useRealisticEngine false
param *.node[*].scenario_type "\"SinusoidalScenario\""
param *.node[*].unicast.packetLossRate 0
param *.obstacles.debug false
param *.playgroundSizeX 65000m
param *.playgroundSizeY 25000m
param *.playgroundSizeZ 50m
param *.world.use2D false
param *.world.useTorus false

vector 0  scenario.node[0].appl  distance  ETV
vector 1  scenario.node[0].appl  relativeSpeed  ETV
vector 2  scenario.node[0].appl  nodeId  ETV
vector 6  scenario.node[0].appl  acceleration  ETV
vector 7  scenario.node[0].appl  controllerAcceleration  ETV
vector 3  scenario.node[0].appl  speed  ETV
vector 4  scenario.node[0].appl  posx  ETV
vector 5  scenario.node[0].appl  posy  ETV
vector 22  scenario.node[1].appl  distance  ETV
vector 23  scenario.node[1].appl  relativeSpeed  ETV
vector 24  scenario.node[1].appl  nodeId  ETV
vector 28  scenario.node[1].appl  acceleration  ETV
vector 29  scenario.node[1].appl  controllerAcceleration  ETV
vector 25  scenario.node[1].appl  speed  ETV
vector 26  scenario.node[1].appl  posx  ETV
vector 27  scenario.node[1].appl  posy  ETV
vector 44  scenario.node[2].appl  distance  ETV
vector 45  scenario.node[2].appl  relativeSpeed  ETV
vector 46  scenario.node[2].appl  nodeId  ETV
vector 50  scenario.node[2].appl  acceleration  ETV
vector 51  scenario.node[2].appl  controllerAcceleration  ETV
vector 47  scenario.node[2].appl  speed  ETV
vector 48  scenario.node[2].appl  posx  ETV
vector 49  scenario.node[2].appl  posy  ETV
vector 66  scenario.node[3].appl  distance  ETV
vector 67  scenario.node[3].appl  relativeSpeed  ETV
vector 68  scenario.node[3].appl  nodeId  ETV
vector 72  scenario.node[3].appl  acceleration  ETV
vector 73  scenario.node[3].appl  controllerAcceleration  ETV
vector 69  scenario.node[3].appl  speed  ETV
vector 70  scenario.node[3].appl  posx  ETV
vector 71  scenario.node[3].appl  posy  ETV
vector 88  scenario.node[4].appl  distance  ETV
vector 89  scenario.node[4].appl  relativeSpeed  ETV
vector 90  scenario.node[4].appl  nodeId  ETV
vector 94  scenario.node[4].appl  acceleration  ETV
vector 95  scenario.node[4].appl  controllerAcceleration  ETV
vector 91  scenario.node[4].appl  speed  ETV
vector 92  scenario.node[4].appl  posx  ETV
vector 93  scenario.node[4].appl  posy  ETV
vector 110  scenario.node[5].appl  distance  ETV
vector 111  scenario.node[5].appl  relativeSpeed  ETV
vector 112  scenario.node[5].appl  nodeId  ETV
vector 116  scenario.node[5].appl  acceleration  ETV
vector 117  scenario.node[5].appl  controllerAcceleration  ETV
vector 113  scenario.node[5].appl  speed  ETV
vector 114  scenario.node[5].appl  posx  ETV
vector 115  scenario.node[5].appl  posy  ETV
vector 132  scenario.node[6].appl  distance  ETV
vector 133  scenario.node[6].appl  relativeSpeed  ETV
vector 134  scenario.node[6].appl  nodeId  ETV
vector 138  scenario.node[6].appl  acceleration  ETV
vector 139  scenario.node[6].appl  controllerAcceleration  ETV
vector 135  scenario.node[6].appl  speed  ETV
vector 136  scenario.node[6].appl  posx  ETV
vector 137  scenario.node[6].appl  posy  ETV
vector 154  scenario.node[7].appl  distance  ETV
vector 155  scenario.node[7].appl  relativeSpeed  ETV
vector 156  scenario.node[7].appl  nodeId  ETV
vector 160  scenario.node[7].appl  acceleration  ETV
vector 161  scenario.node[7].appl  controllerAcceleration  ETV
vector 157  scenario.node[7].appl  speed  ETV
vector 158  scenario.node[7].appl  posx  ETV
vector 159  scenario.node[7].appl  posy  ETV
vector 168  scenario.node[7].prot  frontDelay  ETV
vector 166  scenario.node[7].prot  frontDelayId  ETV
vector 146  scenario.node[6].prot  frontDelay  ETV
vector 144  scenario.node[6].prot  frontDelayId  ETV
vector 35  scenario.node[1].prot  leaderDelay  ETV
vector 33  scenario.node[1].prot  leaderDelayId  ETV
vector 36  scenario.node[1].prot  frontDelay  ETV
vector 34  scenario.node[1].prot  frontDelayId  ETV
vector 57  scenario.node[2].prot  leaderDelay  ETV
vector 55  scenario.node[2].prot  leaderDelayId  ETV
vector 79  scenario.node[3].prot  leaderDelay  ETV
vector 77  scenario.node[3].prot  leaderDelayId  ETV
vector 101  scenario.node[4].prot  leaderDelay  ETV
vector 99  scenario.node[4].prot  leaderDelayId  ETV
vector 123  scenario.node[5].prot  leaderDelay  ETV
vector 121  scenario.node[5].prot  leaderDelayId  ETV
vector 145  scenario.node[6].prot  leaderDelay  ETV
vector 143  scenario.node[6].prot  leaderDelayId  ETV
vector 167  scenario.node[7].prot  leaderDelay  ETV
vector 165  scenario.node[7].prot  leaderDelayId  ETV
vector 102  scenario.node[4].prot  frontDelay  ETV
vector 100  scenario.node[4].prot  frontDelayId  ETV
vector 80  scenario.node[3].prot  frontDelay  ETV
vector 78  scenario.node[3].prot  frontDelayId  ETV
vector 124  scenario.node[5].prot  frontDelay  ETV
vector 122  scenario.node[5].prot  frontDelayId  ETV
vector 58  scenario.node[2].prot  frontDelay  ETV
vector 56  scenario.node[2].prot  frontDelayId  ETV
vector 8  scenario.node[0].prot  nodeId  ETV
vector 9  scenario.node[0].prot  busyTime  ETV
vector 10  scenario.node[0].prot  collisions  ETV
vector 30  scenario.node[1].prot  nodeId  ETV
vector 31  scenario.node[1].prot  busyTime  ETV
vector 32  scenario.node[1].prot  collisions  ETV
vector 52  scenario.node[2].prot  nodeId  ETV
vector 53  scenario.node[2].prot  busyTime  ETV
vector 54  scenario.node[2].prot  collisions  ETV
vector 74  scenario.node[3].prot  nodeId  ETV
vector 75  scenario.node[3].prot  busyTime  ETV
vector 76  scenario.node[3].prot  collisions  ETV
vector 96  scenario.node[4].prot  nodeId  ETV
vector 97  scenario.node[4].prot  busyTime  ETV
vector 98  scenario.node[4].prot  collisions  ETV
vector 118  scenario.node[5].prot  nodeId  ETV
vector 119  scenario.node[5].prot  busyTime  ETV
vector 120  scenario.node[5].prot  collisions  ETV
vector 140  scenario.node[6].prot  nodeId  ETV
vector 141  scenario.node[6].prot  busyTime  ETV
vector 142  scenario.node[6].prot  collisions  ETV
vector 162  scenario.node[7].prot  nodeId  ETV
vector 163  scenario.node[7].prot  busyTime  ETV
vector 164  scenario.node[7].prot  collisions  ETV
7	11288 10964 232 258453 1.11 47.41 464 -1.5 1.5 15.01381765661 765.49603490462
6	22252 14617 232 258453 1.11 47.41 464 -1.4722746794938 1.4513434107954 12.497835576358 520.80805691613
5	36869 9456 232 258453 1.11 47.41 464 36.55 36.55 16959.2 619858.76
4	46325 14051 232 258453 1.11 47.41 464 326.22663040135 1616.0169422103 451322.84185541 503510492.05077
3	60376 14045 232 258453 1.11 47.41 464 26.487966042703 29.742492528104 12926.114311402 360442.73927179
1	74421 7600 232 258453 1.11 47.41 464 0 0 0 0
0	82021 8064 232 258453 1.11 47.41 464 -1 -1 -464 464
2	90085 7600 232 258453 1.11 47.41 464 0 0 0 0
10	97685 663 5168 256148 2 47 46 0 0 0 0
9	98348 894 5168 256148 2 47 46 0.023297 0.02625 1.204547 0.031550562709
8	99242 617 5168 256148 2 47 46 0 0 0 0
29	99859 15045 233 258454 1.11 47.41 464 -1.9952324490536 1.9889343734489 12.136971271795 899.64856740995
28	114904 15059 233 258454 1.11 47.41 464 -1.7216163238849 1.7126010809069 3.4399105182953 614.49871890188
27	129963 9920 233 258454 1.11 47.41 464 36.55 36.55 16959.2 619858.76
26	139883 14503 233 258454 1.11 47.41 464 285.00440139771 1574.0387507578 432168.92061895 467073783.3232
25	154386 14514 233 258454 1.11 47.41 464 26.386858529708 29.733441222746 12918.228436769 360070.36442571
23	168900 15167 233 258454 1.11 47.41 464 -1.222742060844 1.2115761105818 7.7608962768328 337.47481638775
22	184067 14504 233 258454 1.11 47.41 464 36.176813084477 38.677063693201 17297.763518965 645082.80349948
24	198571 8064 233 258454 1.11 47.41 464 1 1 464 464
36	206635 18565 1034 258142 1.262220262582 47.362220689491 462 0.099987761697 0.100001042486 46.200001451967 4.6200002958547
35	225200 18565 1034 258142 1.262220262582 47.362220689491 462 0.099987761697 0.100001042486 46.200001451967 4.6200002958547
34	243765 12609 1034 258142 1.262220262582 47.362220689491 462 1 1 462 462
33	256374 12609 1034 258142 1.262220262582 47.362220689491 462 1 1 462 462
32	268983 663 5169 256149 2 47 46 0 0 0 0
31	269646 940 5169 256149 2 47 46 0.023296 0.02625 1.204546 0.031550516116
30	270586 663 5169 256149 2 47 46 1 1 46 46
51	271249 15049 234 258455 1.11 47.41 464 -1.5031397586445 1.4913640700452 9.5727439712931 527.27329538003
50	286298 15121 234 258455 1.11 47.41 464 -1.2939015145346 1.2707612742037 2.94444491749 346.05137650784
49	301419 9920 234 258455 1.11 47.41 464 36.55 36.55 16959.2 619858.76
48	311339 14518 234 258455 1.11 47.41 464 243.78218765259 1533.0983208044 413010.20702501 432197153.34676
47	325857 14503 234 258455 1.11 47.41 464 26.740375385623 29.401110094183 12921.032098853 360050.00491866
45	340360 15382 234 258455 1.11 47.41 464 -0.38763948433887 0.36030644244403 -2.8380611887374 25.985082108897
44	355742 14511 234 258455 1.11 47.41 464 36.939242286029 37.874703259508 17302.769667183 645250.86604292
46	370253 8064 234 258455 1.11 47.41 464 2 2 928 1856
58	378317 18579 1312 258415 1.302600500106 47.402600676747 462 0.099987737911 0.100001042741 46.200001201699 4.6200002458051
57	396896 18559 1040 258148 1.262220400084 47.36222082605 462 0.09998776158 0.100001042583 46.200001451024 4.6200002956661
56	415455 12612 1312 258415 1.302600500106 47.402600676747 462 2 2 924 1848
55	428067 12595 1040 258148 1.262220400084 47.36222082605 462 2 2 924 1848
54	440662 663 5170 256150 2 47 46 0 0 0 0
53	441325 940 5170 256150 2 47 46 0.023297 0.02625 1.204547 0.031550562709
52	442265 663 5170 256150 2 47 46 2 2 92 184
73	442928 15044 235 258456 1.11 47.41 464 -1.5273842454797 1.5196661438308 10.100758646831 538.44215110325
72	457972 15105 235 258456 1.11 47.41 464 -1.3287192056886 1.3182356493754 3.5170232793639 372.3959508525
71	473077 9920 235 258456 1.11 47.41 464 36.55 36.55 16959.2 619858.76
70	482997 14516 235 258456 1.11 47.41 464 202.55997390747 1491.8525592483 393850.75816111 398894309.05204
69	497513 14517 235 258456 1.11 47.41 464 26.694666981657 29.342469380535 12920.81659447 360051.69033637
67	512030 15763 235 258456 1.11 47.41 464 -0.098183048244334 0.12090102155707 0.18605993339402 1.2923013399956
66	527793 14514 235 258456 1.11 47.41 464 37.172457890239 37.54164142184 17303.444553811 645282.84314534
68	542307 8064 235 258456 1.11 47.41 464 3 3 1392 4176
80	550371 18573 1176 258284 1.287876812593 47.387877238816 462 0.099987742132 0.100001042527 46.200001451281 4.6200002957212
79	568944 18578 1046 258154 1.262220537587 47.36222096364 462 0.099987761595 0.100001042565 46.200001451111 4.6200002956835
78	587522 12614 1176 258284 1.287876812593 47.387877238816 462 3 3 1386 4158
77	600136 12617 1046 258154 1.262220537587 47.36222096364 462 3 3 1386 4158
76	612753 663 5171 256151 2 47 46 0 0 0 0
75	613416 940 5171 256151 2 47 46 0.023297 0.02625 1.204547 0.031550562709
74	614356 663 5171 256151 2 47 46 3 3 138 414
117	615019 15530 237 258458 1.11 47.41 464 -1.4365193434287 1.7008228823791 40.830333851237 487.54765538731
116	630549 15612 237 258458 1.11 47.41 464 -1.2579043553693 1.4710062852838 27.136447360707 338.53198978698
115	646161 10384 237 258458 1.11 47.41 464 36.55 36.55 16959.2 619858.76
114	656545 14985 237 258458 1.11 47.41 464 120.11552352905 1434.0885645146 356964.60747351 340761123.58674
113	671530 14969 237 258458 1.11 47.41 464 26.773582268223 31.034780364658 13168.449536929 374226.2777124
111	686499 15961 237 258458 1.11 47.41 464 -0.044847971681317 1.3346381267867 125.09286948609 111.83200830765
110	702460 14978 237 258458 1.11 47.41 464 37.222221374512 49.744197496802 18542.867682626 749410.50525753
112	717438 8528 237 258458 1.11 47.41 464 5 5 2320 11600
124	725966 19017 1244 258358 1.297507087598 47.397507431744 462 0.099987745961 0.100001042538 46.200001369204 4.6200002793052
123	744983 19019 1058 258166 1.262220812592 47.362221156716 462 0.099987760789 0.100001042598 46.200001369182 4.6200002792977
122	764002 13062 1244 258358 1.297507087598 47.397507431744 462 5 5 2310 11550
121	777064 13061 1058 258166 1.262220812592 47.362221156716 462 5 5 2310 11550
120	790125 709 5173 256153 2 47 46 0 0 0 0
119	790834 986 5173 256153 2 47 46 0.023297 0.02625 1.204547 0.031550562709
118	791820 709 5173 256153 2 47 46 5 5 230 1150
139	792529 15543 238 258459 1.11 47.41 464 -1.4230877148093 1.6076395076454 28.801066264978 475.59397151808
138	808072 15597 238 258459 1.11 47.41 464 -1.226620846457 1.4116356308236 22.874018033318 322.23340638735
137	823669 10384 238 258459 1.11 47.41 464 36.55 36.55 16959.2 619858.76
136	834053 14968 238 258459 1.11 47.41 464 78.893298339844 1383.0160488657 337061.86246528 310213872.28261
135	849021 14973 238 258459 1.11 47.41 464 26.805879338344 30.37643658695 13069.794518636 368478.22599449
133	863994 16057 238 258459 1.11 47.41 464 -0.033160892114239 0.89246473134159 98.383653819411 68.602818122773
132	880051 14977 238 258459 1.11 47.41 464 37.222223689714 47.063603375675 18044.771907859 705691.9269504
134	895028 8528 238 258459 1.11 47.41 464 6 6 2784 16704
146	903556 19041 970 258072 1.247597575069 47.347598112702 462 0.099987749542 0.100001042802 46.200001562691 4.6200003180018
145	922597 19015 1064 258172 1.262220950094 47.362221327001 462 0.09998776095 0.100001042607 46.200001401965 4.6200002858543
144	941612 13073 970 258072 1.247597575069 47.347598112702 462 6 6 2772 16632
143	954685 13063 1064 258172 1.262220950094 47.362221327001 462 6 6 2772 16632
142	967748 709 5174 256154 2 47 46 0 0 0 0
141	968457 986 5174 256154 2 47 46 0.023297 0.02625 1.204547 0.031550562709
140	969443 709 5174 256154 2 47 46 6 6 276 1656
161	970152 15507 239 258460 1.11 47.41 464 -1.4013436491282 1.5226336012883 21.680579494158 460.77205240069
160	985659 15615 239 258460 1.11 47.41 464 -1.1971820919403 1.3371452982209 17.224871235296 307.04246672856
159	1001274 10384 239 258460 1.11 47.41 464 36.55 36.55 16959.2 619858.76
158	1011658 14979 239 258460 1.11 47.41 464 37.671077919006 1334.8101768191 317506.09306656 282189582.1872
157	1026637 14972 239 258460 1.11 47.41 464 26.83577673301 29.684612428409 12999.763749207 364447.6836515
155	1041609 16049 239 258460 1.11 47.41 464 -0.033656575944139 0.69185636555899 69.802029249043 39.875788390936
154	1057658 14978 239 258460 1.11 47.41 464 37.222220420837 44.194812522601 17698.368783335 676544.32088384
156	1072636 8528 239 258460 1.11 47.41 464 7 7 3248 22736
168	1081164 19073 832 258491 1.212126162561 47.41212733823 463 0.099987730906 0.100001042774 46.299989200727 4.6299978457557
167	1100237 19004 1070 258178 1.262221087597 47.362221487707 462 0.099987761142 0.100001042615 46.200001425168 4.6200002904949
166	1119241 13100 832 258491 1.212126162561 47.41212733823 463 7 7 3241 22687
165	1132341 13059 1070 258178 1.262221087597 47.362221487707 462 7 7 3234 22638
164	1145400 709 5175 256155 2 47 46 0 0 0 0
163	1146109 986 5175 256155 2 47 46 0.023297 0.02625 1.204547 0.031550562709
162	1147095 709 5175 256155 2 47 46 7 7 322 2254
88	1147804 14531 236 258529 1.11 47.42 465 0 37.452883942297 14636.235663828 511375.69796274
89	1162335 15605 236 258529 1.11 47.42 465 -2.7481974990391 0.051996598430023 -375.7803932986 913.65980069886
90	1177940 8082 236 258529 1.11 47.42 465 4 4 1860 7440
91	1186022 14542 236 258529 1.11 47.42 465 26.75000790307 31.522052817549 13324.632097174 382585.412341
92	1200564 14544 236 258529 1.11 47.42 465 161.33774490356 1488.1472406189 378854.13037811 376491152.33303
93	1215108 9942 236 258529 1.11 47.42 465 36.55 36.55 16995.75 621194.6625
94	1225050 15160 236 258529 1.11 47.42 465 -1.2912430240728 1.9532777104587 31.891074210586 385.1143656026
95	1240210 15085 236 258529 1.11 47.42 465 -1.4863397294728 2.2760790224183 43.757465868052 558.07796769744
96	1255295 663 5172 256152 2 47 46 4 4 184 736
97	1255958 940 5172 256152 2 47 46 0.023297 0.02625 1.204547 0.031550562709
98	1256898 663 5172 256152 2 47 46 0 0 0 0
99	1257561 12608 1052 258160 1.262220675089 47.362220977477 462 4 4 1848 7392
100	1270169 13051 1108 258210 1.27658267509 47.376582977387 462 4 4 1848 7392
101	1283220 19044 1052 258160 1.262220675089 47.362220977477 462 0.099987760678 0.100001042581 46.200001327446 4.6200002709505
102	1302264 19012 1108 258210 1.27658267509 47.376582977387 462 0.099987741234 0.100001042582 46.200001327355 4.6200002709361
