file 1683779 1501692249                                         
version 2
run SinusoidalPosInjectionAttack-281-20170802-18:43:39-107072
attr CACCSpacing 5
attr attackAcc -30
attr attackPos 11
attr attackSpeed 150
attr attackStart 30
attr attacker 2
attr beaconInterval 0.1
attr configname SinusoidalPosInjectionAttack
attr controller 1
attr datetime 20170802-18:43:39
attr experiment SinusoidalPosInjectionAttack
attr fakeAcc "(2 == 4)"
attr fakePos "(2 == 2)"
attr fakeSpeed "(2 == 3)"
attr inifile omnetpp_281.ini
attr iterationvars "$attacker=2, $attackSpeed=150, $attackPos=11, $attackAcc=-30, $leaderSpeed=150, $controller=1, $CACCSpacing=5, $sController=\"CACC\", $attackStart=30, $0=5, $1=0, $nCars=8, $platoonSize=8, $nLanes=1, $beaconInterval=0.1, $priority=2, $packetSize=200, $ploegH=0.5, $leaderHeadway=1.2, $fakeSpeed=(2 == 3), $fakeAcc=(2 == 4), $fakePos=(2 == 2)"
attr iterationvarsf attacker=2,attackSpeed=150,attackPos=11,attackAcc=-30,leaderSpeed=150,controller=1,CACCSpacing=5,sController=CACC,attackStart=30,5,0,nCars=8,platoonSize=8,nLanes=1,beaconInterval=0.1,priority=2,packetSize=200,ploegH=0.5,leaderHeadway=1.2,fakeSpeed=(2_==_3),fakeAcc=(2_==_4),fakePos=(2_==_2)-
attr leaderHeadway 1.2
attr leaderSpeed 150
attr measurement "$attacker=2, $attackSpeed=150, $attackPos=11, $attackAcc=-30, $leaderSpeed=150, $controller=1, $CACCSpacing=5, $sController=\"CACC\", $attackStart=30, $0=5, $1=0, $nCars=8, $platoonSize=8, $nLanes=1, $beaconInterval=0.1, $priority=2, $packetSize=200, $ploegH=0.5, $leaderHeadway=1.2, $fakeSpeed=(2 == 3), $fakeAcc=(2 == 4), $fakePos=(2 == 2)"
attr nCars 8
attr nLanes 1
attr network scenario
attr packetSize 200
attr platoonSize 8
attr ploegH 0.5
attr priority 2
attr processid 107072
attr repetition 1
attr replication #1
attr resultdir results
attr runnumber 281
attr sController "\"CACC\""
attr seedset 1
param **.coreDebug false
param **.debug false
param **.headway 0.1s
param **.numberOfCars 8
param **.numberOfCarsPerPlatoon 8
param **.numberOfLanes 1
param **.numericController 1
param **.traffic.nCars 8
param **.traffic.nLanes 1
param **.traffic.platoonInsertDistance 5m
param **.traffic.platoonInsertHeadway 0s
param **.traffic.platoonInsertSpeed 150kmph
param **.traffic.platoonInsertTime "1 s"
param **.traffic.platoonLeaderHeadway 1.2s
param **.traffic.platoonSize 8
param **.traffic.platooningVType "\"vtypeauto\""
param **.traffic_type "\"PlatoonsTrafficManager\""
param *.**.nic.mac1609_4.bitrate 6Mbps
param *.**.nic.mac1609_4.txPower 100mW
param *.**.nic.mac1609_4.useServiceChannel false
param *.**.nic.phy80211p.analogueModels "xmldoc(\"config.xml\")"
param *.**.nic.phy80211p.decider "xmldoc(\"config.xml\")"
param *.**.nic.phy80211p.maxTXPower 100mW
param *.**.nic.phy80211p.sensitivity -94dBm
param *.**.nic.phy80211p.thermalNoise -95dBm
param *.**.nic.phy80211p.usePropagationDelay true
param *.**.nic.phy80211p.useThermalNoise true
param *.annotations.draw false
param *.connectionManager.alpha 2.0
param *.connectionManager.carrierFrequency "5.890e9 Hz"
param *.connectionManager.pMax 100mW
param *.connectionManager.sat -94dBm
param *.connectionManager.sendDirect true
param *.manager.autoShutdown true
param *.manager.commandLine "\"sumo --remote-port $port --seed $seed --configuration-file $configFile\""
param *.manager.configFile "\"./sumocfg/freeway.sumo.cfg\""
param *.manager.host "\"localhost\""
param *.manager.margin 25
param *.manager.moduleDisplayString "\"\""
param *.manager.moduleName "\"node\""
param *.manager.moduleType "\"Car\""
param *.manager.updateInterval 0.01s
param *.node[*].appl.attackStart 30s
param *.node[*].appl.attackerType 2
param *.node[*].appl.simulationDuration "60 s"
param *.node[*].appl_type "\"SimplePlatooningApp\""
param *.node[*].helper.nCars 8
param *.node[*].helper.nLanes 1
param *.node[*].helper.platoonSize 8
param *.node[*].helper_type "\"PositionHelper\""
param *.node[*].mobility.x 0
param *.node[*].mobility.y 0
param *.node[*].mobility.z 1.895
param *.node[*].prot.attackStart 30s
param *.node[*].prot.attackerType 2
param *.node[*].prot.attackingNode 3
param *.node[*].prot.beaconingInterval 0.1s
param *.node[*].prot.fakeAcc "(2 == 4)"
param *.node[*].prot.fakePos "(2 == 2)"
param *.node[*].prot.fakeSpeed "(2 == 3)"
param *.node[*].prot.maliciousAcc "-30 mpss"
param *.node[*].prot.maliciousSpeed 150kmph
param *.node[*].prot.packetSize 200
param *.node[*].prot.priority 2
param *.node[*].prot.shiftX "11 m"
param *.node[*].prot.useControllerAcceleration true
param *.node[*].protocol_type "\"SimplePlatooningBeaconing\""
param *.node[*].scenario.accHeadway 0.1s
param *.node[*].scenario.caccC1 0.5
param *.node[*].scenario.caccOmegaN "0.2 Hz"
param *.node[*].scenario.caccSpacing 5m
param *.node[*].scenario.caccXi 1
param *.node[*].scenario.controller "\"CACC\""
param *.node[*].scenario.engineTau "0.5 s"
param *.node[*].scenario.leaderHeadway 1.2s
param *.node[*].scenario.leaderOscillationFrequency "0.2 Hz"
param *.node[*].scenario.leaderSpeed 150kmph
param *.node[*].scenario.oscillationAmplitude "10 kmph"
param *.node[*].scenario.ploegH 0.5s
param *.node[*].scenario.ploegKd 0.7
param *.node[*].scenario.ploegKp 0.2
param *.node[*].scenario.startOscillating "5 s"
param *.node[*].scenario.useRealisticEngine false
param *.node[*].scenario_type "\"SinusoidalScenario\""
param *.node[*].unicast.packetLossRate 0
param *.obstacles.debug false
param *.playgroundSizeX 65000m
param *.playgroundSizeY 25000m
param *.playgroundSizeZ 50m
param *.world.use2D false
param *.world.useTorus false

vector 0  scenario.node[0].appl  distance  ETV
vector 1  scenario.node[0].appl  relativeSpeed  ETV
vector 2  scenario.node[0].appl  nodeId  ETV
vector 6  scenario.node[0].appl  acceleration  ETV
vector 7  scenario.node[0].appl  controllerAcceleration  ETV
vector 3  scenario.node[0].appl  speed  ETV
vector 4  scenario.node[0].appl  posx  ETV
vector 5  scenario.node[0].appl  posy  ETV
vector 22  scenario.node[1].appl  distance  ETV
vector 23  scenario.node[1].appl  relativeSpeed  ETV
vector 24  scenario.node[1].appl  nodeId  ETV
vector 28  scenario.node[1].appl  acceleration  ETV
vector 29  scenario.node[1].appl  controllerAcceleration  ETV
vector 25  scenario.node[1].appl  speed  ETV
vector 26  scenario.node[1].appl  posx  ETV
vector 27  scenario.node[1].appl  posy  ETV
vector 44  scenario.node[2].appl  distance  ETV
vector 45  scenario.node[2].appl  relativeSpeed  ETV
vector 46  scenario.node[2].appl  nodeId  ETV
vector 50  scenario.node[2].appl  acceleration  ETV
vector 51  scenario.node[2].appl  controllerAcceleration  ETV
vector 47  scenario.node[2].appl  speed  ETV
vector 48  scenario.node[2].appl  posx  ETV
vector 49  scenario.node[2].appl  posy  ETV
vector 66  scenario.node[3].appl  distance  ETV
vector 67  scenario.node[3].appl  relativeSpeed  ETV
vector 68  scenario.node[3].appl  nodeId  ETV
vector 72  scenario.node[3].appl  acceleration  ETV
vector 73  scenario.node[3].appl  controllerAcceleration  ETV
vector 69  scenario.node[3].appl  speed  ETV
vector 70  scenario.node[3].appl  posx  ETV
vector 71  scenario.node[3].appl  posy  ETV
vector 88  scenario.node[4].appl  distance  ETV
vector 89  scenario.node[4].appl  relativeSpeed  ETV
vector 90  scenario.node[4].appl  nodeId  ETV
vector 94  scenario.node[4].appl  acceleration  ETV
vector 95  scenario.node[4].appl  controllerAcceleration  ETV
vector 91  scenario.node[4].appl  speed  ETV
vector 92  scenario.node[4].appl  posx  ETV
vector 93  scenario.node[4].appl  posy  ETV
vector 110  scenario.node[5].appl  distance  ETV
vector 111  scenario.node[5].appl  relativeSpeed  ETV
vector 112  scenario.node[5].appl  nodeId  ETV
vector 116  scenario.node[5].appl  acceleration  ETV
vector 117  scenario.node[5].appl  controllerAcceleration  ETV
vector 113  scenario.node[5].appl  speed  ETV
vector 114  scenario.node[5].appl  posx  ETV
vector 115  scenario.node[5].appl  posy  ETV
vector 132  scenario.node[6].appl  distance  ETV
vector 133  scenario.node[6].appl  relativeSpeed  ETV
vector 134  scenario.node[6].appl  nodeId  ETV
vector 138  scenario.node[6].appl  acceleration  ETV
vector 139  scenario.node[6].appl  controllerAcceleration  ETV
vector 135  scenario.node[6].appl  speed  ETV
vector 136  scenario.node[6].appl  posx  ETV
vector 137  scenario.node[6].appl  posy  ETV
vector 154  scenario.node[7].appl  distance  ETV
vector 155  scenario.node[7].appl  relativeSpeed  ETV
vector 156  scenario.node[7].appl  nodeId  ETV
vector 160  scenario.node[7].appl  acceleration  ETV
vector 161  scenario.node[7].appl  controllerAcceleration  ETV
vector 157  scenario.node[7].appl  speed  ETV
vector 158  scenario.node[7].appl  posx  ETV
vector 159  scenario.node[7].appl  posy  ETV
vector 58  scenario.node[2].prot  frontDelay  ETV
vector 56  scenario.node[2].prot  frontDelayId  ETV
vector 102  scenario.node[4].prot  frontDelay  ETV
vector 100  scenario.node[4].prot  frontDelayId  ETV
vector 146  scenario.node[6].prot  frontDelay  ETV
vector 144  scenario.node[6].prot  frontDelayId  ETV
vector 168  scenario.node[7].prot  frontDelay  ETV
vector 166  scenario.node[7].prot  frontDelayId  ETV
vector 124  scenario.node[5].prot  frontDelay  ETV
vector 122  scenario.node[5].prot  frontDelayId  ETV
vector 35  scenario.node[1].prot  leaderDelay  ETV
vector 33  scenario.node[1].prot  leaderDelayId  ETV
vector 36  scenario.node[1].prot  frontDelay  ETV
vector 34  scenario.node[1].prot  frontDelayId  ETV
vector 57  scenario.node[2].prot  leaderDelay  ETV
vector 55  scenario.node[2].prot  leaderDelayId  ETV
vector 79  scenario.node[3].prot  leaderDelay  ETV
vector 77  scenario.node[3].prot  leaderDelayId  ETV
vector 101  scenario.node[4].prot  leaderDelay  ETV
vector 99  scenario.node[4].prot  leaderDelayId  ETV
vector 123  scenario.node[5].prot  leaderDelay  ETV
vector 121  scenario.node[5].prot  leaderDelayId  ETV
vector 145  scenario.node[6].prot  leaderDelay  ETV
vector 143  scenario.node[6].prot  leaderDelayId  ETV
vector 167  scenario.node[7].prot  leaderDelay  ETV
vector 165  scenario.node[7].prot  leaderDelayId  ETV
vector 80  scenario.node[3].prot  frontDelay  ETV
vector 78  scenario.node[3].prot  frontDelayId  ETV
vector 8  scenario.node[0].prot  nodeId  ETV
vector 9  scenario.node[0].prot  busyTime  ETV
vector 10  scenario.node[0].prot  collisions  ETV
vector 30  scenario.node[1].prot  nodeId  ETV
vector 31  scenario.node[1].prot  busyTime  ETV
vector 32  scenario.node[1].prot  collisions  ETV
vector 52  scenario.node[2].prot  nodeId  ETV
vector 53  scenario.node[2].prot  busyTime  ETV
vector 54  scenario.node[2].prot  collisions  ETV
vector 74  scenario.node[3].prot  nodeId  ETV
vector 75  scenario.node[3].prot  busyTime  ETV
vector 76  scenario.node[3].prot  collisions  ETV
vector 96  scenario.node[4].prot  nodeId  ETV
vector 97  scenario.node[4].prot  busyTime  ETV
vector 98  scenario.node[4].prot  collisions  ETV
vector 118  scenario.node[5].prot  nodeId  ETV
vector 119  scenario.node[5].prot  busyTime  ETV
vector 120  scenario.node[5].prot  collisions  ETV
vector 140  scenario.node[6].prot  nodeId  ETV
vector 141  scenario.node[6].prot  busyTime  ETV
vector 142  scenario.node[6].prot  collisions  ETV
vector 162  scenario.node[7].prot  nodeId  ETV
vector 163  scenario.node[7].prot  busyTime  ETV
vector 164  scenario.node[7].prot  collisions  ETV
7	11254 13862 232 328174 1.11 59.91 589 -1.5 1.5 -14.445978168666 993.24092374633
6	25116 18591 232 328174 1.11 59.91 589 -1.4722746794739 1.4513434175775 -12.507273387293 675.29835233824
5	43707 12081 232 328174 1.11 59.91 589 36.55 36.55 21527.95 786846.5725
4	55788 17919 232 328174 1.11 59.91 589 99.772059249478 2554.0881918363 782381.61314387 1335480700.3289
3	73707 17882 232 328174 1.11 59.91 589 40.376854748618 43.631381416411 24584.394369227 1026576.1694128
1	91589 9725 232 328174 1.11 59.91 589 0 0 0 0
0	101314 10314 232 328174 1.11 59.91 589 -1 -1 -589 589
2	111628 9725 232 328174 1.11 59.91 589 0 0 0 0
10	121353 858 5168 328662 2 60 59 0 0 0 0
9	122211 1154 5168 328662 2 60 59 0.023297 0.02625 1.545797 0.040508375209
8	123365 799 5168 328662 2 60 59 0 0 0 0
29	124164 19071 233 328175 1.11 59.91 589 -1.5555551920973 1.5570065806119 -15.855682074174 1038.2873494048
28	143235 19178 233 328175 1.11 59.91 589 -1.4954736412641 1.4762165103704 -12.059872336555 693.60785005
27	162413 12670 233 328175 1.11 59.91 589 36.55 36.55 21527.95 786846.5725
26	175083 18482 233 328175 1.11 59.91 589 90.772059249878 2545.2100685883 777073.41927726 1321436059.9011
25	193565 18487 233 328175 1.11 59.91 589 40.359801290659 43.640189945694 24585.630615643 1026689.761021
23	212052 19794 233 328175 1.11 59.91 589 -0.12424054129113 0.12345093525423 -1.1111736816363 5.157690968605
22	231846 18500 233 328175 1.11 59.91 589 4.8732899883257 5.1830413249279 2952.2185915418 14801.465687053
24	250346 10314 233 328175 1.11 59.91 589 1 1 589 589
36	260660 23685 1238 328624 1.297801900626 59.997807067325 588 0.099998479131 0.100011482557 58.800003647033 5.8800007396992
35	284345 23685 1238 328624 1.297801900626 59.997807067325 588 0.099998479131 0.100011482557 58.800003647033 5.8800007396992
34	308030 16109 1238 328624 1.297801900626 59.997807067325 588 1 1 588 588
33	324139 16109 1238 328624 1.297801900626 59.997807067325 588 1 1 588 588
32	340248 858 5169 328663 2 60 59 0 0 0 0
31	341106 1213 5169 328663 2 60 59 0.023297 0.02625 1.545797 0.040508375209
30	342319 858 5169 328663 2 60 59 1 1 59 59
51	343177 19054 234 328176 1.11 59.91 589 -1.509213596604 1.5122039307383 -15.704009249631 985.15201193395
50	362231 19183 234 328176 1.11 59.91 589 -1.4841297360832 1.4674874037915 -11.908109724578 683.43372032381
49	381414 12670 234 328176 1.11 59.91 589 36.55 36.55 21527.95 786846.5725
48	394084 18490 234 328176 1.11 59.91 589 81.772059249878 2536.2164251532 771768.83928198 1307490538.8761
47	412574 18499 234 328176 1.11 59.91 589 40.369621264055 43.628786597664 24585.699595626 1026688.70928
45	431073 20600 234 328176 1.11 59.91 589 -0.010773792808216 0.012241032060388 0.051618739575702 0.026701253903594
44	451673 18483 234 328176 1.11 59.91 589 4.9877400694518 5.0331336584793 2948.5813748807 14760.904665246
46	470156 10314 234 328176 1.11 59.91 589 2 2 1178 2356
58	480470 23694 832 328218 1.212435510355 59.912440678121 588 0.099998479123 0.100011482567 58.8000036481 5.8800007399126
57	504164 23701 1244 328630 1.297801930647 59.997807097321 588 0.099998479128 0.100011482561 58.800003647008 5.8800007396942
56	527865 16117 832 328218 1.212435510355 59.912440678121 588 2 2 1176 2352
55	543982 16113 1244 328630 1.297801930647 59.997807097321 588 2 2 1176 2352
54	560095 858 5170 328664 2 60 59 0 0 0 0
53	560953 1213 5170 328664 2 60 59 0.023296 0.02625 1.545796 0.040508328616
52	562166 858 5170 328664 2 60 59 2 2 118 236
73	563024 19036 235 328177 1.11 59.91 589 -1.4954488807892 1.4986508406297 -15.573036230285 956.38738233266
72	582060 19140 235 328177 1.11 59.91 589 -1.4697266324674 1.4523921507653 -11.64537945851 670.13211098476
71	601200 12670 235 328177 1.11 59.91 589 36.55 36.55 21527.95 786846.5725
70	613870 18498 235 328177 1.11 59.91 589 72.772059249878 2527.2322375295 766464.21169575 1293640434.1005
69	632368 18505 235 328177 1.11 59.91 589 40.384029308329 43.613786586721 24585.867115365 1026694.0213596
67	650873 20307 235 328177 1.11 59.91 589 -0.021936206482252 0.021653869345336 -0.048438641077453 0.083096793976834
66	671180 18448 235 328177 1.11 59.91 589 4.9762348928466 5.0520778488931 2948.6309366261 14761.520428308
68	689628 10314 235 328177 1.11 59.91 589 3 3 1767 5301
80	699942 23685 1312 328701 1.307223960668 60.007216127281 588 0.099998479124 0.10001148239 58.799990646947 5.8799981395526
79	723627 23707 1250 328636 1.297801960667 59.997807127282 588 0.099998479124 0.100011482564 58.800003646949 5.8800007396824
78	747334 16101 1312 328701 1.307223960668 60.007216127281 588 3 3 1764 5292
77	763435 16119 1250 328636 1.297801960667 59.997807127282 588 3 3 1764 5292
76	779554 858 5171 328665 2 60 59 0 0 0 0
75	780412 1213 5171 328665 2 60 59 0.023297 0.02625 1.545797 0.040508375209
74	781625 858 5171 328665 2 60 59 3 3 177 531
95	782483 19062 236 328178 1.11 59.91 589 -1.5015734350113 1.506086239001 -15.644743207814 971.14575511901
94	801545 19171 236 328178 1.11 59.91 589 -1.46716202919 1.4505081439289 -11.631471526834 668.779773721
93	820716 12670 236 328178 1.11 59.91 589 36.55 36.55 21527.95 786846.5725
92	833386 18499 236 328178 1.11 59.91 589 63.772059249878 2518.2327987884 761159.72755484 1279885244.1124
91	851885 18498 236 328178 1.11 59.91 589 40.384991868944 43.609774304364 24585.873359291 1026693.6558925
89	870383 20304 236 328178 1.11 59.91 589 -0.013223225592235 0.015827589086236 0.1102098680221 0.054679731350365
88	890687 18476 236 328178 1.11 59.91 589 4.9991229930838 5.0167039135717 2948.4842657895 14759.879791154
90	909163 10314 236 328178 1.11 59.91 589 4 4 2356 9424
102	919477 24276 902 328288 1.235039570397 59.935044738108 588 0.099998479117 0.100011482572 58.800003648045 5.8800007399016
101	943753 24290 1256 328642 1.297801990688 59.997807157301 588 0.099998479124 0.100011482566 58.800003646947 5.880000739682
100	968043 16711 902 328288 1.235039570397 59.935044738108 588 4 4 2352 9408
99	984754 16125 1256 328642 1.297801990688 59.997807157301 588 4 4 2352 9408
98	1000879 858 5172 328666 2 60 59 0 0 0 0
97	1001737 1213 5172 328666 2 60 59 0.023297 0.02625 1.545797 0.040508375209
96	1002950 858 5172 328666 2 60 59 4 4 236 944
117	1003808 19651 237 328179 1.11 59.91 589 -1.5284774893968 1.5300606396935 -15.850888732582 998.12566225665
116	1023459 19773 237 328179 1.11 59.91 589 -1.4661745290063 1.4485225492457 -11.412503348189 667.4685200785
115	1043232 13259 237 328179 1.11 59.91 589 36.55 36.55 21527.95 786846.5725
114	1056491 19086 237 328179 1.11 59.91 589 54.772061157227 2509.2587523639 755855.16432802 1266225115.3943
113	1075577 19082 237 328179 1.11 59.91 589 40.386626470139 43.606818977637 24586.140880697 1026715.010124
111	1094659 20761 237 328179 1.11 59.91 589 -0.020216221607299 0.020930926089335 -0.15120669023747 0.12935188763675
110	1115420 19066 237 328179 1.11 59.91 589 4.9700585811984 5.0458383262255 2948.5685772448 14760.956209173
112	1134486 10903 237 328179 1.11 59.91 589 5 5 2945 14725
124	1145389 24277 1178 328558 1.297388780543 59.997380948072 588 0.099998479111 0.100011482451 58.799990647863 5.8799981397358
123	1169666 24297 1262 328648 1.297802020709 59.997807187229 588 0.099998479123 0.100011482566 58.800003646854 5.8800007396634
122	1193963 16700 1178 328558 1.297388780543 59.997380948072 588 5 5 2940 14700
121	1210663 16712 1262 328648 1.297802020709 59.997807187229 588 5 5 2940 14700
120	1227375 917 5173 328667 2 60 59 0 0 0 0
119	1228292 1272 5173 328667 2 60 59 0.023297 0.02625 1.545797 0.040508375209
118	1229564 917 5173 328667 2 60 59 5 5 295 1475
139	1230481 19645 238 328180 1.11 59.91 589 -1.4999845220853 1.5046152313456 -15.63647481192 962.67102055928
138	1250126 19786 238 328180 1.11 59.91 589 -1.460550548709 1.4432666284854 -11.408488373132 661.66264799433
137	1269912 13259 238 328180 1.11 59.91 589 36.55 36.55 21527.95 786846.5725
136	1283171 19089 238 328180 1.11 59.91 589 45.772061157227 2500.2503846881 750550.72380305 1252660089.6016
135	1302260 19076 238 328180 1.11 59.91 589 40.392804573713 43.599166746536 24586.057334399 1026704.4130463
133	1321336 20732 238 328180 1.11 59.91 589 -0.021678417051284 0.023301929706179 0.19767133130087 0.15560004288383
132	1342068 19056 238 328180 1.11 59.91 589 4.9933384068868 5.0188540117688 2948.4388540456 14759.434190927
134	1361124 10903 238 328180 1.11 59.91 589 6 6 3534 21204
146	1372027 24289 970 328356 1.248712630439 59.948704798089 588 0.099998479113 0.100011482458 58.799990647984 5.87999813976
145	1396316 24277 1268 328654 1.29780205073 59.997807217278 588 0.09999847912 0.100011482569 58.800003646882 5.880000739669
144	1420593 16700 970 328356 1.248712630439 59.948704798089 588 6 6 3528 21168
143	1437293 16706 1268 328654 1.29780205073 59.997807217278 588 6 6 3528 21168
142	1453999 917 5174 328668 2 60 59 0 0 0 0
141	1454916 1272 5174 328668 2 60 59 0.023297 0.02625 1.545797 0.040508375209
140	1456188 917 5174 328668 2 60 59 6 6 354 2124
161	1457105 19650 239 328181 1.11 59.91 589 -1.5094204034382 1.5126458994111 -15.712138493169 978.55888359653
160	1476755 19767 239 328181 1.11 59.91 589 -1.4619692904546 1.4451435688265 -11.468974126993 664.43225641877
159	1496522 13259 239 328181 1.11 59.91 589 36.55 36.55 21527.95 786846.5725
158	1509781 19082 239 328181 1.11 59.91 589 36.772060680389 2491.2454685529 745246.36071512 1239190002.7101
157	1528863 19089 239 328181 1.11 59.91 589 40.390487876142 43.600869559239 24586.006037055 1026701.7994221
155	1547952 20756 239 328181 1.11 59.91 589 -0.021915810926401 0.024254029064608 0.16538222777326 0.14021773963611
154	1568708 19074 239 328181 1.11 59.91 589 4.9915517758219 5.0179693968698 2948.3620619835 14758.661944425
156	1587782 10903 239 328181 1.11 59.91 589 7 7 4123 28861
168	1598685 24302 1040 328420 1.26389366046 59.963885828127 588 0.099998479114 0.100011482459 58.799990648001 5.8799981397634
167	1622987 24281 1274 328660 1.29780208075 59.997807247316 588 0.099998479122 0.100011482568 58.8000036469 5.8800007396726
166	1647268 16708 1040 328420 1.26389366046 59.963885828127 588 7 7 4116 28812
165	1663976 16697 1274 328660 1.29780208075 59.997807247316 588 7 7 4116 28812
164	1680673 917 5175 328669 2 60 59 0 0 0 0
163	1681590 1272 5175 328669 2 60 59 0.023297 0.02625 1.545797 0.040508375209
162	1682862 917 5175 328669 2 60 59 7 7 413 2891
