file 1203501 1501688320                                         
version 2
run SinusoidalPosInjectionAttack-15-20170802-17:38:17-58008
attr CACCSpacing 20
attr attackAcc -30
attr attackPos 3
attr attackSpeed 150
attr attackStart 30
attr attacker 2
attr beaconInterval 0.1
attr configname SinusoidalPosInjectionAttack
attr controller 3
attr datetime 20170802-17:38:17
attr experiment SinusoidalPosInjectionAttack
attr fakeAcc "(2 == 4)"
attr fakePos "(2 == 2)"
attr fakeSpeed "(2 == 3)"
attr inifile omnetpp_15.ini
attr iterationvars "$attacker=2, $attackSpeed=150, $attackPos=3, $attackAcc=-30, $leaderSpeed=50, $controller=3, $CACCSpacing=20, $sController=\"CONSENSUS\", $attackStart=30, $0=15, $1=0.8, $nCars=8, $platoonSize=8, $nLanes=1, $beaconInterval=0.1, $priority=2, $packetSize=200, $ploegH=0.5, $leaderHeadway=1.2, $fakeSpeed=(2 == 3), $fakeAcc=(2 == 4), $fakePos=(2 == 2)"
attr iterationvarsf attacker=2,attackSpeed=150,attackPos=3,attackAcc=-30,leaderSpeed=50,controller=3,CACCSpacing=20,sController=CONSENSUS,attackStart=30,15,0.8,nCars=8,platoonSize=8,nLanes=1,beaconInterval=0.1,priority=2,packetSize=200,ploegH=0.5,leaderHeadway=1.2,fakeSpeed=(2_==_3),fakeAcc=(2_==_4),fakePos=(2_==_2)-
attr leaderHeadway 1.2
attr leaderSpeed 50
attr measurement "$attacker=2, $attackSpeed=150, $attackPos=3, $attackAcc=-30, $leaderSpeed=50, $controller=3, $CACCSpacing=20, $sController=\"CONSENSUS\", $attackStart=30, $0=15, $1=0.8, $nCars=8, $platoonSize=8, $nLanes=1, $beaconInterval=0.1, $priority=2, $packetSize=200, $ploegH=0.5, $leaderHeadway=1.2, $fakeSpeed=(2 == 3), $fakeAcc=(2 == 4), $fakePos=(2 == 2)"
attr nCars 8
attr nLanes 1
attr network scenario
attr packetSize 200
attr platoonSize 8
attr ploegH 0.5
attr priority 2
attr processid 58008
attr repetition 0
attr replication #0
attr resultdir results
attr runnumber 15
attr sController "\"CONSENSUS\""
attr seedset 0
param **.coreDebug false
param **.debug false
param **.headway 0.1s
param **.numberOfCars 8
param **.numberOfCarsPerPlatoon 8
param **.numberOfLanes 1
param **.numericController 3
param **.traffic.nCars 8
param **.traffic.nLanes 1
param **.traffic.platoonInsertDistance 15m
param **.traffic.platoonInsertHeadway 0.8s
param **.traffic.platoonInsertSpeed 50kmph
param **.traffic.platoonInsertTime "1 s"
param **.traffic.platoonLeaderHeadway 1.2s
param **.traffic.platoonSize 8
param **.traffic.platooningVType "\"vtypeauto\""
param **.traffic_type "\"PlatoonsTrafficManager\""
param *.**.nic.mac1609_4.bitrate 6Mbps
param *.**.nic.mac1609_4.txPower 100mW
param *.**.nic.mac1609_4.useServiceChannel false
param *.**.nic.phy80211p.analogueModels "xmldoc(\"config.xml\")"
param *.**.nic.phy80211p.decider "xmldoc(\"config.xml\")"
param *.**.nic.phy80211p.maxTXPower 100mW
param *.**.nic.phy80211p.sensitivity -94dBm
param *.**.nic.phy80211p.thermalNoise -95dBm
param *.**.nic.phy80211p.usePropagationDelay true
param *.**.nic.phy80211p.useThermalNoise true
param *.annotations.draw false
param *.connectionManager.alpha 2.0
param *.connectionManager.carrierFrequency "5.890e9 Hz"
param *.connectionManager.pMax 100mW
param *.connectionManager.sat -94dBm
param *.connectionManager.sendDirect true
param *.manager.autoShutdown true
param *.manager.commandLine "\"sumo --remote-port $port --seed $seed --configuration-file $configFile\""
param *.manager.configFile "\"./sumocfg/freeway.sumo.cfg\""
param *.manager.host "\"localhost\""
param *.manager.margin 25
param *.manager.moduleDisplayString "\"\""
param *.manager.moduleName "\"node\""
param *.manager.moduleType "\"Car\""
param *.manager.updateInterval 0.01s
param *.node[*].appl.attackStart 30s
param *.node[*].appl.attackerType 2
param *.node[*].appl.simulationDuration "60 s"
param *.node[*].appl_type "\"SimplePlatooningApp\""
param *.node[*].helper.nCars 8
param *.node[*].helper.nLanes 1
param *.node[*].helper.platoonSize 8
param *.node[*].helper_type "\"PositionHelper\""
param *.node[*].mobility.x 0
param *.node[*].mobility.y 0
param *.node[*].mobility.z 1.895
param *.node[*].prot.attackStart 30s
param *.node[*].prot.attackerType 2
param *.node[*].prot.attackingNode 3
param *.node[*].prot.beaconingInterval 0.1s
param *.node[*].prot.fakeAcc "(2 == 4)"
param *.node[*].prot.fakePos "(2 == 2)"
param *.node[*].prot.fakeSpeed "(2 == 3)"
param *.node[*].prot.maliciousAcc "-30 mpss"
param *.node[*].prot.maliciousSpeed 150kmph
param *.node[*].prot.packetSize 200
param *.node[*].prot.priority 2
param *.node[*].prot.shiftX "3 m"
param *.node[*].prot.useControllerAcceleration true
param *.node[*].protocol_type "\"SimplePlatooningBeaconing\""
param *.node[*].scenario.accHeadway 0.1s
param *.node[*].scenario.caccC1 0.5
param *.node[*].scenario.caccOmegaN "0.2 Hz"
param *.node[*].scenario.caccSpacing 20m
param *.node[*].scenario.caccXi 1
param *.node[*].scenario.controller "\"CONSENSUS\""
param *.node[*].scenario.engineTau "0.5 s"
param *.node[*].scenario.leaderHeadway 1.2s
param *.node[*].scenario.leaderOscillationFrequency "0.2 Hz"
param *.node[*].scenario.leaderSpeed 50kmph
param *.node[*].scenario.oscillationAmplitude "10 kmph"
param *.node[*].scenario.ploegH 0.5s
param *.node[*].scenario.ploegKd 0.7
param *.node[*].scenario.ploegKp 0.2
param *.node[*].scenario.startOscillating "5 s"
param *.node[*].scenario.useRealisticEngine false
param *.node[*].scenario_type "\"SinusoidalScenario\""
param *.node[*].unicast.packetLossRate 0
param *.obstacles.debug false
param *.playgroundSizeX 65000m
param *.playgroundSizeY 25000m
param *.playgroundSizeZ 50m
param *.world.use2D false
param *.world.useTorus false

vector 0  scenario.node[0].appl  distance  ETV
vector 1  scenario.node[0].appl  relativeSpeed  ETV
vector 2  scenario.node[0].appl  nodeId  ETV
vector 6  scenario.node[0].appl  acceleration  ETV
vector 7  scenario.node[0].appl  controllerAcceleration  ETV
vector 3  scenario.node[0].appl  speed  ETV
vector 4  scenario.node[0].appl  posx  ETV
vector 5  scenario.node[0].appl  posy  ETV
vector 22  scenario.node[1].appl  distance  ETV
vector 23  scenario.node[1].appl  relativeSpeed  ETV
vector 24  scenario.node[1].appl  nodeId  ETV
vector 28  scenario.node[1].appl  acceleration  ETV
vector 29  scenario.node[1].appl  controllerAcceleration  ETV
vector 25  scenario.node[1].appl  speed  ETV
vector 26  scenario.node[1].appl  posx  ETV
vector 27  scenario.node[1].appl  posy  ETV
vector 44  scenario.node[2].appl  distance  ETV
vector 45  scenario.node[2].appl  relativeSpeed  ETV
vector 46  scenario.node[2].appl  nodeId  ETV
vector 50  scenario.node[2].appl  acceleration  ETV
vector 51  scenario.node[2].appl  controllerAcceleration  ETV
vector 47  scenario.node[2].appl  speed  ETV
vector 48  scenario.node[2].appl  posx  ETV
vector 49  scenario.node[2].appl  posy  ETV
vector 66  scenario.node[3].appl  distance  ETV
vector 67  scenario.node[3].appl  relativeSpeed  ETV
vector 68  scenario.node[3].appl  nodeId  ETV
vector 72  scenario.node[3].appl  acceleration  ETV
vector 73  scenario.node[3].appl  controllerAcceleration  ETV
vector 69  scenario.node[3].appl  speed  ETV
vector 70  scenario.node[3].appl  posx  ETV
vector 71  scenario.node[3].appl  posy  ETV
vector 88  scenario.node[4].appl  distance  ETV
vector 89  scenario.node[4].appl  relativeSpeed  ETV
vector 90  scenario.node[4].appl  nodeId  ETV
vector 94  scenario.node[4].appl  acceleration  ETV
vector 95  scenario.node[4].appl  controllerAcceleration  ETV
vector 91  scenario.node[4].appl  speed  ETV
vector 92  scenario.node[4].appl  posx  ETV
vector 93  scenario.node[4].appl  posy  ETV
vector 110  scenario.node[5].appl  distance  ETV
vector 111  scenario.node[5].appl  relativeSpeed  ETV
vector 112  scenario.node[5].appl  nodeId  ETV
vector 116  scenario.node[5].appl  acceleration  ETV
vector 117  scenario.node[5].appl  controllerAcceleration  ETV
vector 113  scenario.node[5].appl  speed  ETV
vector 114  scenario.node[5].appl  posx  ETV
vector 115  scenario.node[5].appl  posy  ETV
vector 132  scenario.node[6].appl  distance  ETV
vector 133  scenario.node[6].appl  relativeSpeed  ETV
vector 134  scenario.node[6].appl  nodeId  ETV
vector 138  scenario.node[6].appl  acceleration  ETV
vector 139  scenario.node[6].appl  controllerAcceleration  ETV
vector 135  scenario.node[6].appl  speed  ETV
vector 136  scenario.node[6].appl  posx  ETV
vector 137  scenario.node[6].appl  posy  ETV
vector 154  scenario.node[7].appl  distance  ETV
vector 155  scenario.node[7].appl  relativeSpeed  ETV
vector 156  scenario.node[7].appl  nodeId  ETV
vector 160  scenario.node[7].appl  acceleration  ETV
vector 161  scenario.node[7].appl  controllerAcceleration  ETV
vector 157  scenario.node[7].appl  speed  ETV
vector 158  scenario.node[7].appl  posx  ETV
vector 159  scenario.node[7].appl  posy  ETV
vector 80  scenario.node[3].prot  frontDelay  ETV
vector 78  scenario.node[3].prot  frontDelayId  ETV
vector 58  scenario.node[2].prot  frontDelay  ETV
vector 56  scenario.node[2].prot  frontDelayId  ETV
vector 168  scenario.node[7].prot  frontDelay  ETV
vector 166  scenario.node[7].prot  frontDelayId  ETV
vector 35  scenario.node[1].prot  leaderDelay  ETV
vector 33  scenario.node[1].prot  leaderDelayId  ETV
vector 36  scenario.node[1].prot  frontDelay  ETV
vector 34  scenario.node[1].prot  frontDelayId  ETV
vector 57  scenario.node[2].prot  leaderDelay  ETV
vector 55  scenario.node[2].prot  leaderDelayId  ETV
vector 79  scenario.node[3].prot  leaderDelay  ETV
vector 77  scenario.node[3].prot  leaderDelayId  ETV
vector 101  scenario.node[4].prot  leaderDelay  ETV
vector 99  scenario.node[4].prot  leaderDelayId  ETV
vector 123  scenario.node[5].prot  leaderDelay  ETV
vector 121  scenario.node[5].prot  leaderDelayId  ETV
vector 145  scenario.node[6].prot  leaderDelay  ETV
vector 143  scenario.node[6].prot  leaderDelayId  ETV
vector 167  scenario.node[7].prot  leaderDelay  ETV
vector 165  scenario.node[7].prot  leaderDelayId  ETV
vector 124  scenario.node[5].prot  frontDelay  ETV
vector 122  scenario.node[5].prot  frontDelayId  ETV
vector 102  scenario.node[4].prot  frontDelay  ETV
vector 100  scenario.node[4].prot  frontDelayId  ETV
vector 146  scenario.node[6].prot  frontDelay  ETV
vector 144  scenario.node[6].prot  frontDelayId  ETV
vector 8  scenario.node[0].prot  nodeId  ETV
vector 9  scenario.node[0].prot  busyTime  ETV
vector 10  scenario.node[0].prot  collisions  ETV
vector 30  scenario.node[1].prot  nodeId  ETV
vector 31  scenario.node[1].prot  busyTime  ETV
vector 32  scenario.node[1].prot  collisions  ETV
vector 52  scenario.node[2].prot  nodeId  ETV
vector 53  scenario.node[2].prot  busyTime  ETV
vector 54  scenario.node[2].prot  collisions  ETV
vector 74  scenario.node[3].prot  nodeId  ETV
vector 75  scenario.node[3].prot  busyTime  ETV
vector 76  scenario.node[3].prot  collisions  ETV
vector 96  scenario.node[4].prot  nodeId  ETV
vector 97  scenario.node[4].prot  busyTime  ETV
vector 98  scenario.node[4].prot  collisions  ETV
vector 118  scenario.node[5].prot  nodeId  ETV
vector 119  scenario.node[5].prot  busyTime  ETV
vector 120  scenario.node[5].prot  collisions  ETV
vector 140  scenario.node[6].prot  nodeId  ETV
vector 141  scenario.node[6].prot  busyTime  ETV
vector 142  scenario.node[6].prot  collisions  ETV
vector 162  scenario.node[7].prot  nodeId  ETV
vector 163  scenario.node[7].prot  busyTime  ETV
vector 164  scenario.node[7].prot  collisions  ETV
7	11280 10003 232 235584 1.11 43.31 423 -1.5 1.5 1.7458805394556 694.00576029522
6	21283 13306 232 235584 1.11 43.31 423 -1.472274679513 1.4513433675033 7.7168556913536 463.58685122279
5	34589 8595 232 235584 1.11 43.31 423 36.55 36.55 15460.65 565086.7575
4	43184 12786 232 235584 1.11 43.31 423 245.60652503954 836.42885067979 229268.66901931 136561060.9678
3	55970 12774 232 235584 1.11 43.31 423 12.599078321582 15.853603639796 5922.3907100843 83236.86538171
1	68744 6903 232 235584 1.11 43.31 423 0 0 0 0
0	75647 7326 232 235584 1.11 43.31 423 -1 -1 -423 423
2	82973 6903 232 235584 1.11 43.31 423 0 0 0 0
10	89876 603 5102 233770 2 43 42 0 0 0 0
9	90479 814 5102 233770 2 43 42 0.022969 0.02625 1.099219 0.028779137461
8	91293 561 5102 233770 2 43 42 0 0 0 0
29	91854 13657 233 235585 1.11 43.31 423 -1.974182500248 1.967923945161 15.336341877819 780.07217701326
28	105511 13689 233 235585 1.11 43.31 423 -1.7218029751641 1.7127847971881 13.749880451479 552.22307909894
27	119200 9018 233 235585 1.11 43.31 423 36.55 36.55 15460.65 565086.7575
26	128218 13198 233 235585 1.11 43.31 423 215.49542579651 805.36699790397 216496.03579231 123110680.3458
25	141416 13205 233 235585 1.11 43.31 423 12.497985225775 15.844543128268 5913.0830436832 83032.225559907
23	154621 13787 233 235585 1.11 43.31 423 -1.222723042264 1.2115523893251 9.2304978441382 298.53087630457
22	168408 13196 233 235585 1.11 43.31 423 25.065726387291 27.565950941302 11080.447073678 290460.05778912
24	181604 7326 233 235585 1.11 43.31 423 1 1 423 423
36	188930 16885 1032 235271 1.254914118035 43.254914262284 421 0.099909689132 0.100091825111 42.100013956566 4.2100035060881
35	205815 16885 1032 235271 1.254914118035 43.254914262284 421 0.099909689132 0.100091825111 42.100013956566 4.2100035060881
34	222700 11455 1032 235271 1.254914118035 43.254914262284 421 1 1 421 421
33	234155 11455 1032 235271 1.254914118035 43.254914262284 421 1 1 421 421
32	245610 603 5103 233771 2 43 42 0 0 0 0
31	246213 856 5103 233771 2 43 42 0.022969 0.02625 1.099219 0.028779137461
30	247069 603 5103 233771 2 43 42 1 1 42 42
51	247672 13737 234 235586 1.11 43.31 423 -1.4708919843301 1.4592398966304 11.336361285994 447.79973927482
50	261409 13785 234 235586 1.11 43.31 423 -1.2930963040144 1.2699071869017 10.320543093199 310.33787687387
49	275194 9018 234 235586 1.11 43.31 423 36.55 36.55 15460.65 565086.7575
48	284212 13196 234 235586 1.11 43.31 423 185.38431129456 775.34700936856 203729.24250795 110437326.98243
47	297408 13204 234 235586 1.11 43.31 423 12.85234655957 15.511549184833 5913.8752679129 82895.388117361
45	310612 14024 234 235586 1.11 43.31 423 -0.38763991137364 0.36023546387916 -0.92972303414357 23.237071138502
44	324636 13209 234 235586 1.11 43.31 423 25.828078480304 26.763703628123 11074.809128844 289977.25288255
46	337845 7326 234 235586 1.11 43.31 423 2 2 846 1692
58	345171 16937 900 235690 1.229660013197 43.329660848861 422 0.099987677859 0.100000831663 42.200001647981 4.2200003337182
57	362108 16898 1038 235277 1.254914218475 43.254914362353 421 0.099909689039 0.100091825065 42.100013956195 4.2100035060139
56	379006 11487 900 235690 1.229660013197 43.329660848861 422 2 2 844 1688
55	390493 11463 1038 235277 1.254914218475 43.254914362353 421 2 2 842 1684
54	401956 603 5104 233772 2 43 42 0 0 0 0
53	402559 856 5104 233772 2 43 42 0.022969 0.02625 1.099219 0.028779137461
52	403415 603 5104 233772 2 43 42 2 2 84 168
73	404018 13708 235 235587 1.11 43.31 423 -1.5377956356022 1.5284858401567 11.586515688236 482.72970184685
72	417726 13753 235 235587 1.11 43.31 423 -1.3294201458363 1.3188602316053 10.826287813413 334.09232004338
71	431479 9018 235 235587 1.11 43.31 423 36.55 36.55 15460.65 565086.7575
70	440497 13191 235 235587 1.11 43.31 423 155.2731967926 745.26955653074 190959.98124186 98527929.664374
69	453688 13208 235 235587 1.11 43.31 423 12.805802701275 15.453823677832 5914.2299502911 82917.730719064
67	466896 14372 235 235587 1.11 43.31 423 -0.10270650394987 0.12549675007338 -0.45788780915765 1.3244510043832
66	481268 13208 235 235587 1.11 43.31 423 26.059560319088 26.434065939849 11077.268359736 290089.02972122
68	494476 7326 235 235587 1.11 43.31 423 3 3 1269 3807
80	501802 16911 832 235628 1.213906912757 43.313907748906 422 0.099987689531 0.100000831436 42.200001648466 4.2200003338141
79	518713 16899 1044 235283 1.254914318915 43.254914462692 421 0.099909689036 0.100091825051 42.100013956094 4.2100035059937
78	535612 11468 832 235628 1.213906912757 43.313907748906 422 3 3 1266 3798
77	547080 11461 1044 235283 1.254914318915 43.254914462692 421 3 3 1263 3789
76	558541 603 5105 233773 2 43 42 0 0 0 0
75	559144 856 5105 233773 2 43 42 0.022968 0.02625 1.099218 0.028779091524
74	560000 603 5105 233773 2 43 42 3 3 126 378
117	560603 14136 237 235589 1.11 43.31 423 -1.4308156377083 1.664827681004 35.181234316697 427.79631917872
116	574739 14206 237 235589 1.11 43.31 423 -1.2579554082812 1.4725808032864 32.578308054404 305.21794201561
115	588945 9441 237 235589 1.11 43.31 423 36.55 36.55 15460.65 565086.7575
114	598386 13627 237 235589 1.11 43.31 423 95.050975418091 700.11662521996 166036.72132619 77813615.443233
113	612013 13626 237 235589 1.11 43.31 423 12.884305942423 17.126369524194 6065.6803957826 87354.828878754
111	625639 14555 237 235589 1.11 43.31 423 -0.044719104683303 1.3353900437218 109.58591990641 105.87888405501
110	640194 13615 237 235589 1.11 43.31 423 26.111106872559 37.079834972135 11831.680471369 335601.18254804
112	653809 7749 237 235589 1.11 43.31 423 5 5 2115 10575
124	661558 17331 1172 235417 1.265751122434 43.265751369858 421 0.099987671451 0.100000831408 42.100001059741 4.2100002160705
123	678889 17309 1056 235295 1.254914519794 43.254914613738 421 0.099909688335 0.100091825072 42.100013906261 4.2100034960271
122	696198 11895 1172 235417 1.265751122434 43.265751369858 421 5 5 2105 10525
121	708093 11883 1056 235295 1.254914519794 43.254914613738 421 5 5 2105 10525
120	719976 645 5107 233775 2 43 42 0 0 0 0
119	720621 898 5107 233775 2 43 42 0.022968 0.02625 1.099218 0.028779091524
118	721519 645 5107 233775 2 43 42 5 5 210 1050
139	722164 14156 238 235590 1.11 43.31 423 -1.4213470173331 1.5838087301265 24.404957990711 420.50160299922
138	736320 14212 238 235590 1.11 43.31 423 -1.2279809678486 1.4115617884611 25.712974904233 291.83010604336
137	750532 9441 238 235590 1.11 43.31 423 36.55 36.55 15460.65 565086.7575
136	759973 13622 238 235590 1.11 43.31 423 64.939864730835 662.33478196452 152887.97267866 67704558.036619
135	773595 13633 238 235590 1.11 43.31 423 12.916713413104 16.455640726443 5988.7386127025 85035.625552333
133	787228 14655 238 235590 1.11 43.31 423 -0.033550099775427 0.89333005650451 76.615999999549 56.838172033998
132	801883 13632 238 235590 1.11 43.31 423 26.111109392915 33.768428679483 11455.209811869 311812.20288475
134	815515 7749 238 235590 1.11 43.31 423 6 6 2538 15228
146	823264 17312 1312 235546 1.305161423754 43.305161523567 421 0.099987674414 0.100000831447 42.10000091213 4.2100001865478
145	840576 17312 1062 235301 1.254914620234 43.254914739631 421 0.099909688579 0.100091825071 42.100013931714 4.2100035011177
144	857888 11872 1312 235546 1.305161423754 43.305161523567 421 6 6 2526 15156
143	869760 11885 1062 235301 1.254914620234 43.254914739631 421 6 6 2526 15156
142	881645 645 5108 233776 2 43 42 0 0 0 0
141	882290 898 5108 233776 2 43 42 0.022969 0.02625 1.099219 0.028779137461
140	883188 645 5108 233776 2 43 42 6 6 252 1512
161	883833 14162 239 235591 1.11 43.31 423 -1.3674315430587 1.5122549304405 20.409404358426 390.80552012388
160	897995 14228 239 235591 1.11 43.31 423 -1.1966630808459 1.3376297281319 18.890848455124 277.04879196113
159	912223 9441 239 235591 1.11 43.31 423 36.55 36.55 15460.65 565086.7575
158	921664 13621 239 235591 1.11 43.31 423 34.82875213623 627.75763918205 139961.13724991 58668416.040747
157	935285 13642 239 235591 1.11 43.31 423 12.947098714151 15.760558658345 5943.8357972707 83716.563254667
155	948927 14706 239 235591 1.11 43.31 423 -0.032926748188139 0.69176750488026 44.64568568276 24.342800199178
154	963633 13618 239 235591 1.11 43.31 423 26.111110848798 30.563241141109 11233.937372442 298728.36759688
156	977251 7749 239 235591 1.11 43.31 423 7 7 2961 20727
168	985000 17318 975 235208 1.254435515396 43.254435692709 421 0.099987684406 0.100000831697 42.10000098963 4.210000202047
167	1002318 17314 1068 235307 1.254914720674 43.254914854828 421 0.099909688799 0.100091825071 42.100013946471 4.2100035040691
166	1019632 11883 975 235208 1.254435515396 43.254435692709 421 7 7 2947 20629
165	1031515 11878 1068 235307 1.254914720674 43.254914854828 421 7 7 2947 20629
164	1043393 645 5109 233777 2 43 42 0 0 0 0
163	1044038 898 5109 233777 2 43 42 0.022969 0.02625 1.099219 0.028779137461
162	1044936 645 5109 233777 2 43 42 7 7 294 2058
88	1045581 13227 236 235730 1.11 43.34 424 0 26.341779207211 9710.6084532061 241723.18404639
89	1058808 14260 236 235730 1.11 43.34 424 -2.6625238781441 0.052129547219327 -264.17593266753 610.07998520786
90	1073068 7344 236 235730 1.11 43.34 424 4 4 1696 6784
91	1080412 13235 236 235730 1.11 43.34 424 12.860395601366 17.625943202628 6193.2636323887 91089.51819415
92	1093647 13236 236 235730 1.11 43.34 424 125.16208229065 741.73511250344 180304.33605593 89786250.338593
93	1106883 9040 236 235730 1.11 43.34 424 36.55 36.55 15497.2 566422.66
94	1115923 13812 236 235730 1.11 43.34 424 -1.2930774815725 1.9535993442704 37.305790384688 348.24260226687
95	1129735 13744 236 235730 1.11 43.34 424 -1.5005580582622 2.1946458694252 30.046766901705 496.86564889831
96	1143479 603 5106 233774 2 43 42 4 4 168 672
97	1144082 856 5106 233774 2 43 42 0.022969 0.02625 1.099219 0.028779137461
98	1144938 603 5106 233774 2 43 42 0 0 0 0
99	1145541 11453 1050 235289 1.254914419354 43.254914476777 421 4 4 1684 6736
100	1156994 11877 1246 235480 1.303552222874 43.303552260519 421 4 4 1684 6736
101	1168871 17312 1050 235289 1.254914419354 43.254914476777 421 0.099909688152 0.100091825067 42.10001386974 4.2100034887229
102	1186183 17318 1246 235480 1.303552222874 43.303552260519 421 0.099987651996 0.100000831422 42.099987849962 4.2099975742642
