file 1088891 1512140197                                         
version 2
run SinusoidalPosInjectionAttack-75-20171201-15:56:18-32940
attr CACCSpacing 20
attr attackAcc -30
attr attackPos 5
attr attackSpeed 150
attr attackStart 30
attr attacker 2
attr beaconInterval 0.1
attr configname SinusoidalPosInjectionAttack
attr controller 3
attr datetime 20171201-15:56:18
attr experiment SinusoidalPosInjectionAttack
attr fakeAcc "(2 == 4)"
attr fakePos "(2 == 2)"
attr fakeSpeed "(2 == 3)"
attr inifile omnetpp_75.ini
attr iterationvars "$attacker=2, $attackSpeed=150, $attackPos=5, $attackAcc=-30, $leaderSpeed=50, $controller=3, $CACCSpacing=20, $sController=\"CONSENSUS\", $attackStart=30, $0=15, $1=0.8, $nCars=8, $platoonSize=8, $nLanes=1, $beaconInterval=0.1, $priority=2, $packetSize=200, $ploegH=0.5, $leaderHeadway=1.2, $fakeSpeed=(2 == 3), $fakeAcc=(2 == 4), $fakePos=(2 == 2)"
attr iterationvarsf attacker=2,attackSpeed=150,attackPos=5,attackAcc=-30,leaderSpeed=50,controller=3,CACCSpacing=20,sController=CONSENSUS,attackStart=30,15,0.8,nCars=8,platoonSize=8,nLanes=1,beaconInterval=0.1,priority=2,packetSize=200,ploegH=0.5,leaderHeadway=1.2,fakeSpeed=(2_==_3),fakeAcc=(2_==_4),fakePos=(2_==_2)-
attr leaderHeadway 1.2
attr leaderSpeed 50
attr measurement "$attacker=2, $attackSpeed=150, $attackPos=5, $attackAcc=-30, $leaderSpeed=50, $controller=3, $CACCSpacing=20, $sController=\"CONSENSUS\", $attackStart=30, $0=15, $1=0.8, $nCars=8, $platoonSize=8, $nLanes=1, $beaconInterval=0.1, $priority=2, $packetSize=200, $ploegH=0.5, $leaderHeadway=1.2, $fakeSpeed=(2 == 3), $fakeAcc=(2 == 4), $fakePos=(2 == 2)"
attr nCars 8
attr nLanes 1
attr network scenario
attr packetSize 200
attr platoonSize 8
attr ploegH 0.5
attr priority 2
attr processid 32940
attr repetition 0
attr replication #0
attr resultdir results
attr runnumber 75
attr sController "\"CONSENSUS\""
attr seedset 0
param **.coreDebug false
param **.debug false
param **.headway 0.1s
param **.numberOfCars 8
param **.numberOfCarsPerPlatoon 8
param **.numberOfLanes 1
param **.numericController 3
param **.traffic.nCars 8
param **.traffic.nLanes 1
param **.traffic.platoonInsertDistance 15m
param **.traffic.platoonInsertHeadway 0.8s
param **.traffic.platoonInsertSpeed 50kmph
param **.traffic.platoonInsertTime "1 s"
param **.traffic.platoonLeaderHeadway 1.2s
param **.traffic.platoonSize 8
param **.traffic.platooningVType "\"vtypeauto\""
param **.traffic_type "\"PlatoonsTrafficManager\""
param *.**.nic.mac1609_4.bitrate 6Mbps
param *.**.nic.mac1609_4.txPower 100mW
param *.**.nic.mac1609_4.useServiceChannel false
param *.**.nic.phy80211p.analogueModels "xmldoc(\"config.xml\")"
param *.**.nic.phy80211p.decider "xmldoc(\"config.xml\")"
param *.**.nic.phy80211p.maxTXPower 100mW
param *.**.nic.phy80211p.sensitivity -94dBm
param *.**.nic.phy80211p.thermalNoise -95dBm
param *.**.nic.phy80211p.usePropagationDelay true
param *.**.nic.phy80211p.useThermalNoise true
param *.annotations.draw false
param *.connectionManager.alpha 2.0
param *.connectionManager.carrierFrequency "5.890e9 Hz"
param *.connectionManager.pMax 100mW
param *.connectionManager.sat -94dBm
param *.connectionManager.sendDirect true
param *.manager.autoShutdown true
param *.manager.commandLine "\"sumo --remote-port $port --seed $seed --configuration-file $configFile\""
param *.manager.configFile "\"./sumocfg/freeway.sumo.cfg\""
param *.manager.host "\"localhost\""
param *.manager.margin 25
param *.manager.moduleDisplayString "\"\""
param *.manager.moduleName "\"node\""
param *.manager.moduleType "\"Car\""
param *.manager.updateInterval 0.01s
param *.node[*].appl.attackStart 30s
param *.node[*].appl.attackerType 2
param *.node[*].appl.simulationDuration "60 s"
param *.node[*].appl_type "\"SimplePlatooningApp\""
param *.node[*].helper.nCars 8
param *.node[*].helper.nLanes 1
param *.node[*].helper.platoonSize 8
param *.node[*].helper_type "\"PositionHelper\""
param *.node[*].mobility.x 0
param *.node[*].mobility.y 0
param *.node[*].mobility.z 1.895
param *.node[*].prot.attackStart 30s
param *.node[*].prot.attackerType 2
param *.node[*].prot.attackingNode 3
param *.node[*].prot.beaconingInterval 0.1s
param *.node[*].prot.fakeAcc "(2 == 4)"
param *.node[*].prot.fakePos "(2 == 2)"
param *.node[*].prot.fakeSpeed "(2 == 3)"
param *.node[*].prot.maliciousAcc "-30 mpss"
param *.node[*].prot.maliciousSpeed 150kmph
param *.node[*].prot.packetSize 200
param *.node[*].prot.priority 2
param *.node[*].prot.shiftX "5 m"
param *.node[*].prot.useControllerAcceleration true
param *.node[*].protocol_type "\"SimplePlatooningBeaconing\""
param *.node[*].scenario.accHeadway 0.1s
param *.node[*].scenario.caccC1 0.5
param *.node[*].scenario.caccOmegaN "0.2 Hz"
param *.node[*].scenario.caccSpacing 20m
param *.node[*].scenario.caccXi 1
param *.node[*].scenario.controller "\"CONSENSUS\""
param *.node[*].scenario.engineTau "0.5 s"
param *.node[*].scenario.leaderHeadway 1.2s
param *.node[*].scenario.leaderSpeed 50kmph
param *.node[*].scenario.ploegH 0.5s
param *.node[*].scenario.ploegKd 0.7
param *.node[*].scenario.ploegKp 0.2
param *.node[*].scenario.useRealisticEngine false
param *.node[*].scenario_type "\"SinusoidalScenario\""
param *.node[*].unicast.packetLossRate 0
param *.obstacles.debug false
param *.playgroundSizeX 65000m
param *.playgroundSizeY 25000m
param *.playgroundSizeZ 50m
param *.world.use2D false
param *.world.useTorus false

vector 0  scenario.node[0].appl  distance  ETV
vector 1  scenario.node[0].appl  relativeSpeed  ETV
vector 2  scenario.node[0].appl  nodeId  ETV
vector 6  scenario.node[0].appl  acceleration  ETV
vector 7  scenario.node[0].appl  controllerAcceleration  ETV
vector 3  scenario.node[0].appl  speed  ETV
vector 4  scenario.node[0].appl  posx  ETV
vector 5  scenario.node[0].appl  posy  ETV
vector 22  scenario.node[1].appl  distance  ETV
vector 23  scenario.node[1].appl  relativeSpeed  ETV
vector 24  scenario.node[1].appl  nodeId  ETV
vector 28  scenario.node[1].appl  acceleration  ETV
vector 29  scenario.node[1].appl  controllerAcceleration  ETV
vector 25  scenario.node[1].appl  speed  ETV
vector 26  scenario.node[1].appl  posx  ETV
vector 27  scenario.node[1].appl  posy  ETV
vector 44  scenario.node[2].appl  distance  ETV
vector 45  scenario.node[2].appl  relativeSpeed  ETV
vector 46  scenario.node[2].appl  nodeId  ETV
vector 50  scenario.node[2].appl  acceleration  ETV
vector 51  scenario.node[2].appl  controllerAcceleration  ETV
vector 47  scenario.node[2].appl  speed  ETV
vector 48  scenario.node[2].appl  posx  ETV
vector 49  scenario.node[2].appl  posy  ETV
vector 66  scenario.node[3].appl  distance  ETV
vector 67  scenario.node[3].appl  relativeSpeed  ETV
vector 68  scenario.node[3].appl  nodeId  ETV
vector 72  scenario.node[3].appl  acceleration  ETV
vector 73  scenario.node[3].appl  controllerAcceleration  ETV
vector 69  scenario.node[3].appl  speed  ETV
vector 70  scenario.node[3].appl  posx  ETV
vector 71  scenario.node[3].appl  posy  ETV
vector 88  scenario.node[4].appl  distance  ETV
vector 89  scenario.node[4].appl  relativeSpeed  ETV
vector 90  scenario.node[4].appl  nodeId  ETV
vector 94  scenario.node[4].appl  acceleration  ETV
vector 95  scenario.node[4].appl  controllerAcceleration  ETV
vector 91  scenario.node[4].appl  speed  ETV
vector 92  scenario.node[4].appl  posx  ETV
vector 93  scenario.node[4].appl  posy  ETV
vector 110  scenario.node[5].appl  distance  ETV
vector 111  scenario.node[5].appl  relativeSpeed  ETV
vector 112  scenario.node[5].appl  nodeId  ETV
vector 116  scenario.node[5].appl  acceleration  ETV
vector 117  scenario.node[5].appl  controllerAcceleration  ETV
vector 113  scenario.node[5].appl  speed  ETV
vector 114  scenario.node[5].appl  posx  ETV
vector 115  scenario.node[5].appl  posy  ETV
vector 132  scenario.node[6].appl  distance  ETV
vector 133  scenario.node[6].appl  relativeSpeed  ETV
vector 134  scenario.node[6].appl  nodeId  ETV
vector 138  scenario.node[6].appl  acceleration  ETV
vector 139  scenario.node[6].appl  controllerAcceleration  ETV
vector 135  scenario.node[6].appl  speed  ETV
vector 136  scenario.node[6].appl  posx  ETV
vector 137  scenario.node[6].appl  posy  ETV
vector 154  scenario.node[7].appl  distance  ETV
vector 155  scenario.node[7].appl  relativeSpeed  ETV
vector 156  scenario.node[7].appl  nodeId  ETV
vector 160  scenario.node[7].appl  acceleration  ETV
vector 161  scenario.node[7].appl  controllerAcceleration  ETV
vector 157  scenario.node[7].appl  speed  ETV
vector 158  scenario.node[7].appl  posx  ETV
vector 159  scenario.node[7].appl  posy  ETV
vector 80  scenario.node[3].prot  frontDelay  ETV
vector 78  scenario.node[3].prot  frontDelayId  ETV
vector 58  scenario.node[2].prot  frontDelay  ETV
vector 56  scenario.node[2].prot  frontDelayId  ETV
vector 168  scenario.node[7].prot  frontDelay  ETV
vector 166  scenario.node[7].prot  frontDelayId  ETV
vector 35  scenario.node[1].prot  leaderDelay  ETV
vector 33  scenario.node[1].prot  leaderDelayId  ETV
vector 36  scenario.node[1].prot  frontDelay  ETV
vector 34  scenario.node[1].prot  frontDelayId  ETV
vector 57  scenario.node[2].prot  leaderDelay  ETV
vector 55  scenario.node[2].prot  leaderDelayId  ETV
vector 79  scenario.node[3].prot  leaderDelay  ETV
vector 77  scenario.node[3].prot  leaderDelayId  ETV
vector 101  scenario.node[4].prot  leaderDelay  ETV
vector 99  scenario.node[4].prot  leaderDelayId  ETV
vector 123  scenario.node[5].prot  leaderDelay  ETV
vector 121  scenario.node[5].prot  leaderDelayId  ETV
vector 145  scenario.node[6].prot  leaderDelay  ETV
vector 143  scenario.node[6].prot  leaderDelayId  ETV
vector 167  scenario.node[7].prot  leaderDelay  ETV
vector 165  scenario.node[7].prot  leaderDelayId  ETV
vector 124  scenario.node[5].prot  frontDelay  ETV
vector 122  scenario.node[5].prot  frontDelayId  ETV
vector 102  scenario.node[4].prot  frontDelay  ETV
vector 100  scenario.node[4].prot  frontDelayId  ETV
vector 146  scenario.node[6].prot  frontDelay  ETV
vector 144  scenario.node[6].prot  frontDelayId  ETV
vector 8  scenario.node[0].prot  nodeId  ETV
vector 9  scenario.node[0].prot  busyTime  ETV
vector 10  scenario.node[0].prot  collisions  ETV
vector 30  scenario.node[1].prot  nodeId  ETV
vector 31  scenario.node[1].prot  busyTime  ETV
vector 32  scenario.node[1].prot  collisions  ETV
vector 52  scenario.node[2].prot  nodeId  ETV
vector 53  scenario.node[2].prot  busyTime  ETV
vector 54  scenario.node[2].prot  collisions  ETV
vector 74  scenario.node[3].prot  nodeId  ETV
vector 75  scenario.node[3].prot  busyTime  ETV
vector 76  scenario.node[3].prot  collisions  ETV
vector 96  scenario.node[4].prot  nodeId  ETV
vector 97  scenario.node[4].prot  busyTime  ETV
vector 98  scenario.node[4].prot  collisions  ETV
vector 118  scenario.node[5].prot  nodeId  ETV
vector 119  scenario.node[5].prot  busyTime  ETV
vector 120  scenario.node[5].prot  collisions  ETV
vector 140  scenario.node[6].prot  nodeId  ETV
vector 141  scenario.node[6].prot  busyTime  ETV
vector 142  scenario.node[6].prot  collisions  ETV
vector 162  scenario.node[7].prot  nodeId  ETV
vector 163  scenario.node[7].prot  busyTime  ETV
vector 164  scenario.node[7].prot  collisions  ETV
7	11115 9048 232 213272 1.11 39.31 383 -1.5 1.5 -13.254102237728 625.40780375117
6	20163 12035 232 213272 1.11 39.31 383 -1.472274679513 1.4513430531444 -5.7553053914718 420.01141643151
5	32198 7755 232 213272 1.11 39.31 383 36.55 36.55 13998.65 511650.6575
4	39953 11549 232 213272 1.11 39.31 383 245.60652503954 781.03487222039 196932.52620483 110410177.41279
3	51502 11540 232 213272 1.11 39.31 383 12.59908680102 15.853603639796 5367.9817470898 75515.873756963
1	63042 6223 232 213272 1.11 39.31 383 0 0 0 0
0	69265 6606 232 213272 1.11 39.31 383 -1 -1 -383 383
2	75871 6223 232 213272 1.11 39.31 383 0 0 0 0
10	82094 543 5102 211458 2 39 38 0 0 0 0
9	82637 734 5102 211458 2 39 38 0.022969 0.02625 0.994219 0.026022887461
8	83371 505 5102 211458 2 39 38 0 0 0 0
29	83876 12354 233 213273 1.11 39.31 383 -1.974182500248 1.9679183777044 -0.98055275491448 700.26938505029
28	96230 12388 233 213273 1.11 39.31 383 -1.7218029751641 1.7127788857808 6.4883881224398 484.50472021522
27	108618 8138 233 213273 1.11 39.31 383 36.55 36.55 13998.65 511650.6575
26	116756 11927 233 213273 1.11 39.31 383 215.49542579651 750.99540354412 185359.9158996 98864827.732367
25	128683 11929 233 213273 1.11 39.31 383 12.498018043325 15.844543128268 5369.1270098731 75604.472624585
23	140612 12471 233 213273 1.11 39.31 383 -1.222723042264 1.2115321678312 -1.0877097293884 268.51551248434
22	153083 11921 233 213273 1.11 39.31 383 25.065831726395 27.565950941302 10040.633210492 263406.89398805
24	165004 6606 233 213273 1.11 39.31 383 1 1 383 383
36	171610 15285 1032 213516 1.254914118035 39.354873040961 382 0.099909788778 0.100091825111 38.199972735243 3.8199951903029
35	186895 15285 1032 213516 1.254914118035 39.354873040961 382 0.099909788778 0.100091825111 38.199972735243 3.8199951903029
34	202180 10365 1032 213516 1.254914118035 39.354873040961 382 1 1 382 382
33	212545 10365 1032 213516 1.254914118035 39.354873040961 382 1 1 382 382
32	222910 543 5103 211459 2 39 38 0 0 0 0
31	223453 772 5103 211459 2 39 38 0.022969 0.02625 0.994219 0.026022887461
30	224225 543 5103 211459 2 39 38 1 1 38 38
51	224768 12423 234 213274 1.11 39.31 383 -1.4708919843301 1.4591979340314 -1.1518887013313 402.95735399435
50	237191 12471 234 213274 1.11 39.31 383 -1.2930963040144 1.2698646713504 4.4789323148168 273.15692653516
49	249662 8138 234 213274 1.11 39.31 383 36.55 36.55 13998.65 511650.6575
48	257800 11917 234 213274 1.11 39.31 383 185.38431129456 720.65626618488 173796.62789379 88028655.291694
47	269717 11928 234 213274 1.11 39.31 383 12.852581690589 15.511549184833 5366.7737140067 75395.117962624
45	281645 12680 234 213274 1.11 39.31 383 -0.38763991137364 0.36023546387916 2.2884119852517 21.07021774678
44	294325 11934 234 213274 1.11 39.31 383 25.82860440198 26.763703628123 10031.240939885 262749.55960667
46	306259 6606 234 213274 1.11 39.31 383 2 2 766 1532
58	312865 15312 900 213384 1.229660013197 39.329657962094 382 0.099987732411 0.100000831663 38.199998761214 3.8199997560439
57	328177 15305 1038 213522 1.254914218475 39.354873142189 382 0.099909788679 0.100091825065 38.199972736031 3.8199951904605
56	343482 10380 900 213384 1.229660013197 39.329657962094 382 2 2 764 1528
55	353862 10371 1038 213522 1.254914218475 39.354873142189 382 2 2 764 1528
54	364233 543 5104 211460 2 39 38 0 0 0 0
53	364776 772 5104 211460 2 39 38 0.022969 0.02625 0.994219 0.026022887461
52	365548 543 5104 211460 2 39 38 2 2 76 152
73	366091 12396 235 213275 1.11 39.31 383 -1.5377956356022 1.5283122287332 -1.7817725960481 434.73346460021
72	378487 12443 235 213275 1.11 39.31 383 -1.3294201458363 1.3186880848332 4.2110080068655 294.19767061838
71	390930 8138 235 213275 1.11 39.31 383 36.55 36.55 13998.65 511650.6575
70	399068 11917 235 213275 1.11 39.31 383 155.2731967926 690.59311861946 162232.36009631 77886395.708026
69	410985 11930 235 213275 1.11 39.31 383 12.806802766375 15.453823677832 5367.2445661201 75418.652411845
67	422915 12993 235 213275 1.11 39.31 383 -0.10270650394987 0.12549675007338 -0.51564143660027 1.1799282838308
66	435908 11932 235 213275 1.11 39.31 383 26.059560319088 26.434065939849 10032.277214523 262788.82579773
68	447840 6606 235 213275 1.11 39.31 383 3 3 1149 3447
80	454446 15274 832 213310 1.213906912757 39.313904859967 382 0.099987745611 0.100000831436 38.199998759527 3.8199997557058
79	469720 15300 1044 213528 1.254914318915 39.354873242472 382 0.099909788699 0.100091825051 38.199972735874 3.8199951904291
78	485020 10353 832 213310 1.213906912757 39.313904859967 382 3 3 1146 3438
77	495373 10364 1044 213528 1.254914318915 39.354873242472 382 3 3 1146 3438
76	505737 543 5105 211461 2 39 38 0 0 0 0
75	506280 772 5105 211461 2 39 38 0.022968 0.02625 0.994218 0.026022841524
74	507052 543 5105 211461 2 39 38 3 3 114 342
117	507595 12792 237 213277 1.11 39.31 383 -1.4308156377083 1.824002581243 31.349047748986 390.7906398898
116	520387 12846 237 213277 1.11 39.31 383 -1.2579554082812 1.6222436596337 34.124354328505 276.91694706561
115	533233 8521 237 213277 1.11 39.31 383 36.55 36.55 13998.65 511650.6575
114	541754 12315 237 213277 1.11 39.31 383 95.050975418091 641.89662730638 139395.40808145 60043544.966001
113	554069 12306 237 213277 1.11 39.31 383 12.884682533542 17.666273602799 5483.542999692 78921.304334544
111	566375 13168 237 213277 1.11 39.31 383 -0.044719104683303 2.2093482757441 143.1990750124 255.06474471866
110	579543 12302 237 213277 1.11 39.31 383 26.111106872559 40.406644265383 10630.921332528 300075.65154529
112	591845 6989 237 213277 1.11 39.31 383 5 5 1915 9575
124	598834 15685 1172 213662 1.265751122434 39.365749175644 382 0.099987722957 0.100000831408 38.199998865527 3.819999776907
123	614519 15680 1056 213540 1.254914519794 39.354873404509 382 0.099909788126 0.100091825072 38.199972697032 3.8199951826607
122	630199 10759 1172 213662 1.265751122434 39.365749175644 382 5 5 1910 9550
121	640958 10748 1056 213540 1.254914519794 39.354873404509 382 5 5 1910 9550
120	651706 581 5107 211463 2 39 38 0 0 0 0
119	652287 810 5107 211463 2 39 38 0.022968 0.02625 0.994218 0.026022841524
118	653097 581 5107 211463 2 39 38 5 5 190 950
139	653678 12799 238 213278 1.11 39.31 383 -1.4213470173331 1.6958097091015 13.533804621442 378.11943000487
138	666477 12855 238 213278 1.11 39.31 383 -1.2279809678486 1.5382463722911 19.604569985901 259.10799156531
137	679332 8521 238 213278 1.11 39.31 383 36.55 36.55 13998.65 511650.6575
136	687853 12305 238 213278 1.11 39.31 383 64.939864730835 604.064297399 127613.96439825 51720709.556649
135	700158 12318 238 213278 1.11 39.31 383 12.916713665286 16.190917407184 5405.8277367322 76525.530280955
133	712476 13253 238 213278 1.11 39.31 383 -0.032981654739276 1.4757041668396 77.374019416444 95.136983893768
132	725729 12311 238 213278 1.11 39.31 383 26.111109392915 33.803550412888 10247.889377944 275139.14158447
134	738040 6989 238 213278 1.11 39.31 383 6 6 2298 13788
146	745029 15640 1312 213234 1.305161423754 39.305158623022 381 0.099987727341 0.100000831447 38.099998011585 3.8099996061178
145	760669 15682 1062 213546 1.254914620234 39.354873530895 382 0.099909788536 0.100091825071 38.199972722978 3.8199951878499
144	776351 10718 1312 213234 1.305161423754 39.305158623022 381 6 6 2286 13716
143	787069 10757 1062 213546 1.254914620234 39.354873530895 382 6 6 2292 13752
142	797826 581 5108 211464 2 39 38 0 0 0 0
141	798407 810 5108 211464 2 39 38 0.022969 0.02625 0.994219 0.026022887461
140	799217 581 5108 211464 2 39 38 6 6 228 1368
161	799798 12817 239 213279 1.11 39.31 383 -1.3674315430587 1.4980468450393 5.4684101059255 348.29468740268
160	812615 12871 239 213279 1.11 39.31 383 -1.1966630808459 1.3253564011197 9.7521140662103 242.82031934805
159	825486 8521 239 213279 1.11 39.31 383 36.55 36.55 13998.65 511650.6575
158	834007 12313 239 213279 1.11 39.31 383 34.82875213623 570.89401753691 115994.40085631 44297251.693251
157	846320 12324 239 213279 1.11 39.31 383 12.947098714205 15.313914074416 5374.8890671569 75605.706816017
155	858644 13338 239 213279 1.11 39.31 383 -0.032919775296442 0.9986786311929 30.742623875519 20.753731826893
154	871982 12302 239 213279 1.11 39.31 383 26.111110848798 29.150459144747 10086.944768553 265753.22888306
156	884284 6989 239 213279 1.11 39.31 383 7 7 2681 18767
168	891273 15685 975 213453 1.254435515396 39.35443346173 382 0.099987740745 0.100000831697 38.199998758651 3.819999755531
167	906958 15688 1068 213552 1.254914720674 39.354873641672 382 0.099909788642 0.100091825071 38.199972733315 3.8199951899173
166	922646 10751 975 213453 1.254435515396 39.35443346173 382 7 7 2674 18718
165	933397 10749 1068 213552 1.254914720674 39.354873641672 382 7 7 2674 18718
164	944146 581 5109 211465 2 39 38 0 0 0 0
163	944727 810 5109 211465 2 39 38 0.022969 0.02625 0.994219 0.026022887461
162	945537 581 5109 211465 2 39 38 7 7 266 1862
88	946118 11947 236 213690 1.11 39.38 384 0 26.341779207211 9144.3566510006 231077.59618611
89	958065 12938 236 213690 1.11 39.38 384 -4.2621224666925 0.052129547219327 -264.26754012246 918.4623722935
90	971003 6624 236 213690 1.11 39.38 384 4 4 1536 6144
91	977627 11954 236 213690 1.11 39.38 384 12.860395601366 19.10820264818 5645.7609398519 83962.334090955
92	989581 11961 236 213690 1.11 39.38 384 125.16208229065 687.62938887632 152248.83210034 70047285.907338
93	1001542 8160 236 213690 1.11 39.38 384 36.55 36.55 14035.2 512986.56
94	1009702 12490 236 213690 1.11 39.38 384 -1.2930774815725 2.4120749563764 45.496465453745 344.20197866552
95	1022192 12432 236 213690 1.11 39.38 384 -1.5061623875931 2.691973282544 31.127835242205 488.47438032669
96	1034624 543 5106 211462 2 39 38 4 4 152 608
97	1035167 772 5106 211462 2 39 38 0.022969 0.02625 0.994219 0.026022887461
98	1035939 543 5106 211462 2 39 38 0 0 0 0
99	1036482 10363 1050 213534 1.254914419354 39.354873256126 382 4 4 1528 6112
100	1046845 10723 1246 213168 1.303552222874 39.303562348707 381 4 4 1524 6096
101	1057568 15675 1050 213534 1.254914419354 39.354873256126 382 0.09990978749 0.100091825067 38.199972649089 3.8199951730721
102	1073243 15648 1246 213168 1.303552222874 39.303562348707 381 0.099987750455 0.100000831422 38.09999793815 3.8099995914295
