file 1164757 1501689598                                         
version 2
run SinusoidalPosInjectionAttack-98-20170802-17:59:37-34104
attr CACCSpacing 20
attr attackAcc -30
attr attackPos 5
attr attackSpeed 150
attr attackStart 30
attr attacker 2
attr beaconInterval 0.1
attr configname SinusoidalPosInjectionAttack
attr controller 3
attr datetime 20170802-17:59:37
attr experiment SinusoidalPosInjectionAttack
attr fakeAcc "(2 == 4)"
attr fakePos "(2 == 2)"
attr fakeSpeed "(2 == 3)"
attr inifile omnetpp_98.ini
attr iterationvars "$attacker=2, $attackSpeed=150, $attackPos=5, $attackAcc=-30, $leaderSpeed=100, $controller=3, $CACCSpacing=20, $sController=\"CONSENSUS\", $attackStart=30, $0=15, $1=0.8, $nCars=8, $platoonSize=8, $nLanes=1, $beaconInterval=0.1, $priority=2, $packetSize=200, $ploegH=0.5, $leaderHeadway=1.2, $fakeSpeed=(2 == 3), $fakeAcc=(2 == 4), $fakePos=(2 == 2)"
attr iterationvarsf attacker=2,attackSpeed=150,attackPos=5,attackAcc=-30,leaderSpeed=100,controller=3,CACCSpacing=20,sController=CONSENSUS,attackStart=30,15,0.8,nCars=8,platoonSize=8,nLanes=1,beaconInterval=0.1,priority=2,packetSize=200,ploegH=0.5,leaderHeadway=1.2,fakeSpeed=(2_==_3),fakeAcc=(2_==_4),fakePos=(2_==_2)-
attr leaderHeadway 1.2
attr leaderSpeed 100
attr measurement "$attacker=2, $attackSpeed=150, $attackPos=5, $attackAcc=-30, $leaderSpeed=100, $controller=3, $CACCSpacing=20, $sController=\"CONSENSUS\", $attackStart=30, $0=15, $1=0.8, $nCars=8, $platoonSize=8, $nLanes=1, $beaconInterval=0.1, $priority=2, $packetSize=200, $ploegH=0.5, $leaderHeadway=1.2, $fakeSpeed=(2 == 3), $fakeAcc=(2 == 4), $fakePos=(2 == 2)"
attr nCars 8
attr nLanes 1
attr network scenario
attr packetSize 200
attr platoonSize 8
attr ploegH 0.5
attr priority 2
attr processid 34104
attr repetition 3
attr replication #3
attr resultdir results
attr runnumber 98
attr sController "\"CONSENSUS\""
attr seedset 3
param **.coreDebug false
param **.debug false
param **.headway 0.1s
param **.numberOfCars 8
param **.numberOfCarsPerPlatoon 8
param **.numberOfLanes 1
param **.numericController 3
param **.traffic.nCars 8
param **.traffic.nLanes 1
param **.traffic.platoonInsertDistance 15m
param **.traffic.platoonInsertHeadway 0.8s
param **.traffic.platoonInsertSpeed 100kmph
param **.traffic.platoonInsertTime "1 s"
param **.traffic.platoonLeaderHeadway 1.2s
param **.traffic.platoonSize 8
param **.traffic.platooningVType "\"vtypeauto\""
param **.traffic_type "\"PlatoonsTrafficManager\""
param *.**.nic.mac1609_4.bitrate 6Mbps
param *.**.nic.mac1609_4.txPower 100mW
param *.**.nic.mac1609_4.useServiceChannel false
param *.**.nic.phy80211p.analogueModels "xmldoc(\"config.xml\")"
param *.**.nic.phy80211p.decider "xmldoc(\"config.xml\")"
param *.**.nic.phy80211p.maxTXPower 100mW
param *.**.nic.phy80211p.sensitivity -94dBm
param *.**.nic.phy80211p.thermalNoise -95dBm
param *.**.nic.phy80211p.usePropagationDelay true
param *.**.nic.phy80211p.useThermalNoise true
param *.annotations.draw false
param *.connectionManager.alpha 2.0
param *.connectionManager.carrierFrequency "5.890e9 Hz"
param *.connectionManager.pMax 100mW
param *.connectionManager.sat -94dBm
param *.connectionManager.sendDirect true
param *.manager.autoShutdown true
param *.manager.commandLine "\"sumo --remote-port $port --seed $seed --configuration-file $configFile\""
param *.manager.configFile "\"./sumocfg/freeway.sumo.cfg\""
param *.manager.host "\"localhost\""
param *.manager.margin 25
param *.manager.moduleDisplayString "\"\""
param *.manager.moduleName "\"node\""
param *.manager.moduleType "\"Car\""
param *.manager.updateInterval 0.01s
param *.node[*].appl.attackStart 30s
param *.node[*].appl.attackerType 2
param *.node[*].appl.simulationDuration "60 s"
param *.node[*].appl_type "\"SimplePlatooningApp\""
param *.node[*].helper.nCars 8
param *.node[*].helper.nLanes 1
param *.node[*].helper.platoonSize 8
param *.node[*].helper_type "\"PositionHelper\""
param *.node[*].mobility.x 0
param *.node[*].mobility.y 0
param *.node[*].mobility.z 1.895
param *.node[*].prot.attackStart 30s
param *.node[*].prot.attackerType 2
param *.node[*].prot.attackingNode 3
param *.node[*].prot.beaconingInterval 0.1s
param *.node[*].prot.fakeAcc "(2 == 4)"
param *.node[*].prot.fakePos "(2 == 2)"
param *.node[*].prot.fakeSpeed "(2 == 3)"
param *.node[*].prot.maliciousAcc "-30 mpss"
param *.node[*].prot.maliciousSpeed 150kmph
param *.node[*].prot.packetSize 200
param *.node[*].prot.priority 2
param *.node[*].prot.shiftX "5 m"
param *.node[*].prot.useControllerAcceleration true
param *.node[*].protocol_type "\"SimplePlatooningBeaconing\""
param *.node[*].scenario.accHeadway 0.1s
param *.node[*].scenario.caccC1 0.5
param *.node[*].scenario.caccOmegaN "0.2 Hz"
param *.node[*].scenario.caccSpacing 20m
param *.node[*].scenario.caccXi 1
param *.node[*].scenario.controller "\"CONSENSUS\""
param *.node[*].scenario.engineTau "0.5 s"
param *.node[*].scenario.leaderHeadway 1.2s
param *.node[*].scenario.leaderOscillationFrequency "0.2 Hz"
param *.node[*].scenario.leaderSpeed 100kmph
param *.node[*].scenario.oscillationAmplitude "10 kmph"
param *.node[*].scenario.ploegH 0.5s
param *.node[*].scenario.ploegKd 0.7
param *.node[*].scenario.ploegKp 0.2
param *.node[*].scenario.startOscillating "5 s"
param *.node[*].scenario.useRealisticEngine false
param *.node[*].scenario_type "\"SinusoidalScenario\""
param *.node[*].unicast.packetLossRate 0
param *.obstacles.debug false
param *.playgroundSizeX 65000m
param *.playgroundSizeY 25000m
param *.playgroundSizeZ 50m
param *.world.use2D false
param *.world.useTorus false

vector 0  scenario.node[0].appl  distance  ETV
vector 1  scenario.node[0].appl  relativeSpeed  ETV
vector 2  scenario.node[0].appl  nodeId  ETV
vector 6  scenario.node[0].appl  acceleration  ETV
vector 7  scenario.node[0].appl  controllerAcceleration  ETV
vector 3  scenario.node[0].appl  speed  ETV
vector 4  scenario.node[0].appl  posx  ETV
vector 5  scenario.node[0].appl  posy  ETV
vector 22  scenario.node[1].appl  distance  ETV
vector 23  scenario.node[1].appl  relativeSpeed  ETV
vector 24  scenario.node[1].appl  nodeId  ETV
vector 28  scenario.node[1].appl  acceleration  ETV
vector 29  scenario.node[1].appl  controllerAcceleration  ETV
vector 25  scenario.node[1].appl  speed  ETV
vector 26  scenario.node[1].appl  posx  ETV
vector 27  scenario.node[1].appl  posy  ETV
vector 44  scenario.node[2].appl  distance  ETV
vector 45  scenario.node[2].appl  relativeSpeed  ETV
vector 46  scenario.node[2].appl  nodeId  ETV
vector 50  scenario.node[2].appl  acceleration  ETV
vector 51  scenario.node[2].appl  controllerAcceleration  ETV
vector 47  scenario.node[2].appl  speed  ETV
vector 48  scenario.node[2].appl  posx  ETV
vector 49  scenario.node[2].appl  posy  ETV
vector 66  scenario.node[3].appl  distance  ETV
vector 67  scenario.node[3].appl  relativeSpeed  ETV
vector 68  scenario.node[3].appl  nodeId  ETV
vector 72  scenario.node[3].appl  acceleration  ETV
vector 73  scenario.node[3].appl  controllerAcceleration  ETV
vector 69  scenario.node[3].appl  speed  ETV
vector 70  scenario.node[3].appl  posx  ETV
vector 71  scenario.node[3].appl  posy  ETV
vector 88  scenario.node[4].appl  distance  ETV
vector 89  scenario.node[4].appl  relativeSpeed  ETV
vector 90  scenario.node[4].appl  nodeId  ETV
vector 94  scenario.node[4].appl  acceleration  ETV
vector 95  scenario.node[4].appl  controllerAcceleration  ETV
vector 91  scenario.node[4].appl  speed  ETV
vector 92  scenario.node[4].appl  posx  ETV
vector 93  scenario.node[4].appl  posy  ETV
vector 110  scenario.node[5].appl  distance  ETV
vector 111  scenario.node[5].appl  relativeSpeed  ETV
vector 112  scenario.node[5].appl  nodeId  ETV
vector 116  scenario.node[5].appl  acceleration  ETV
vector 117  scenario.node[5].appl  controllerAcceleration  ETV
vector 113  scenario.node[5].appl  speed  ETV
vector 114  scenario.node[5].appl  posx  ETV
vector 115  scenario.node[5].appl  posy  ETV
vector 132  scenario.node[6].appl  distance  ETV
vector 133  scenario.node[6].appl  relativeSpeed  ETV
vector 134  scenario.node[6].appl  nodeId  ETV
vector 138  scenario.node[6].appl  acceleration  ETV
vector 139  scenario.node[6].appl  controllerAcceleration  ETV
vector 135  scenario.node[6].appl  speed  ETV
vector 136  scenario.node[6].appl  posx  ETV
vector 137  scenario.node[6].appl  posy  ETV
vector 154  scenario.node[7].appl  distance  ETV
vector 155  scenario.node[7].appl  relativeSpeed  ETV
vector 156  scenario.node[7].appl  nodeId  ETV
vector 160  scenario.node[7].appl  acceleration  ETV
vector 161  scenario.node[7].appl  controllerAcceleration  ETV
vector 157  scenario.node[7].appl  speed  ETV
vector 158  scenario.node[7].appl  posx  ETV
vector 159  scenario.node[7].appl  posy  ETV
vector 35  scenario.node[1].prot  leaderDelay  ETV
vector 33  scenario.node[1].prot  leaderDelayId  ETV
vector 36  scenario.node[1].prot  frontDelay  ETV
vector 34  scenario.node[1].prot  frontDelayId  ETV
vector 57  scenario.node[2].prot  leaderDelay  ETV
vector 55  scenario.node[2].prot  leaderDelayId  ETV
vector 79  scenario.node[3].prot  leaderDelay  ETV
vector 77  scenario.node[3].prot  leaderDelayId  ETV
vector 101  scenario.node[4].prot  leaderDelay  ETV
vector 99  scenario.node[4].prot  leaderDelayId  ETV
vector 123  scenario.node[5].prot  leaderDelay  ETV
vector 121  scenario.node[5].prot  leaderDelayId  ETV
vector 145  scenario.node[6].prot  leaderDelay  ETV
vector 143  scenario.node[6].prot  leaderDelayId  ETV
vector 167  scenario.node[7].prot  leaderDelay  ETV
vector 165  scenario.node[7].prot  leaderDelayId  ETV
vector 168  scenario.node[7].prot  frontDelay  ETV
vector 166  scenario.node[7].prot  frontDelayId  ETV
vector 58  scenario.node[2].prot  frontDelay  ETV
vector 56  scenario.node[2].prot  frontDelayId  ETV
vector 124  scenario.node[5].prot  frontDelay  ETV
vector 122  scenario.node[5].prot  frontDelayId  ETV
vector 80  scenario.node[3].prot  frontDelay  ETV
vector 78  scenario.node[3].prot  frontDelayId  ETV
vector 146  scenario.node[6].prot  frontDelay  ETV
vector 144  scenario.node[6].prot  frontDelayId  ETV
vector 102  scenario.node[4].prot  frontDelay  ETV
vector 100  scenario.node[4].prot  frontDelayId  ETV
vector 8  scenario.node[0].prot  nodeId  ETV
vector 9  scenario.node[0].prot  busyTime  ETV
vector 10  scenario.node[0].prot  collisions  ETV
vector 30  scenario.node[1].prot  nodeId  ETV
vector 31  scenario.node[1].prot  busyTime  ETV
vector 32  scenario.node[1].prot  collisions  ETV
vector 52  scenario.node[2].prot  nodeId  ETV
vector 53  scenario.node[2].prot  busyTime  ETV
vector 54  scenario.node[2].prot  collisions  ETV
vector 74  scenario.node[3].prot  nodeId  ETV
vector 75  scenario.node[3].prot  busyTime  ETV
vector 76  scenario.node[3].prot  collisions  ETV
vector 96  scenario.node[4].prot  nodeId  ETV
vector 97  scenario.node[4].prot  busyTime  ETV
vector 98  scenario.node[4].prot  collisions  ETV
vector 118  scenario.node[5].prot  nodeId  ETV
vector 119  scenario.node[5].prot  busyTime  ETV
vector 120  scenario.node[5].prot  collisions  ETV
vector 140  scenario.node[6].prot  nodeId  ETV
vector 141  scenario.node[6].prot  busyTime  ETV
vector 142  scenario.node[6].prot  collisions  ETV
vector 162  scenario.node[7].prot  nodeId  ETV
vector 163  scenario.node[7].prot  busyTime  ETV
vector 164  scenario.node[7].prot  collisions  ETV
7	11286 9645 232 227770 1.11 41.91 409 -1.5 1.5 15.082133525134 672.54477797466
6	20931 12870 232 227770 1.11 41.91 409 -1.4722746794938 1.4513433675031 7.1972461304664 453.0158745723
5	33801 8301 232 227770 1.11 41.91 409 36.55 36.55 14948.95 546384.1225
4	42102 12344 232 227770 1.11 41.91 409 330.67929763767 1467.1956676589 368373.23318065 376021638.15002
3	54446 12347 232 227770 1.11 41.91 409 26.487967210471 29.742492528104 11393.182740678 317674.27243009
1	66793 6665 232 227770 1.11 41.91 409 0 0 0 0
0	73458 7074 232 227770 1.11 41.91 409 -1 -1 -409 409
2	80532 6665 232 227770 1.11 41.91 409 0 0 0 0
10	87197 573 5056 222568 2 41 40 0 0 0 0
9	87770 1044 5056 222568 2 41 40 0.022755649404 0.026261170789 1.046512651789 0.027391625763112
8	88814 533 5056 222568 2 41 40 0 0 0 0
29	89347 13215 233 227771 1.11 41.91 409 -1.9952324490845 1.9889331200059 3.0409641592747 773.37111004278
28	102562 13241 233 227771 1.11 41.91 409 -1.7216163239166 1.7125938634166 -4.9503754295621 524.65840536565
27	115803 8710 233 227771 1.11 41.91 409 36.55 36.55 14948.95 546384.1225
26	124513 12743 233 227771 1.11 41.91 409 289.45706863403 1425.7793669026 351489.2453166 346336306.28661
25	137256 12745 233 227771 1.11 41.91 409 26.386865490016 29.733441223588 11390.815493197 317604.16033173
23	150001 13368 233 227771 1.11 41.91 409 -1.22274206097 1.2115713992396 2.2952750195111 290.47413246033
22	163369 12762 233 227771 1.11 41.91 409 36.176837173363 38.677063696207 15247.940519103 568659.08148886
24	176131 7074 233 227771 1.11 41.91 409 1 1 409 409
36	183205 16331 836 227261 1.269560712571 41.869562770039 407 0.099988216685 0.100001594427 40.700003632536 4.0700007336574
35	199536 16331 836 227261 1.269560712571 41.869562770039 407 0.099988216685 0.100001594427 40.700003632536 4.0700007336574
34	215867 11075 836 227261 1.269560712571 41.869562770039 407 1 1 407 407
33	226942 11075 836 227261 1.269560712571 41.869562770039 407 1 1 407 407
32	238017 573 5057 222569 2 41 40 0 0 0 0
31	238590 1082 5057 222569 2 41 40 0.022755786906 0.026261170789 1.046512786531 0.027391631876424
30	239672 573 5057 222569 2 41 40 1 1 40 40
51	240245 13274 234 227772 1.11 41.91 409 -1.4546519319847 1.4433148726741 2.6468893753065 425.836081833
50	253519 13320 234 227772 1.11 41.91 409 -1.2932236915582 1.2700273470223 -3.3213781717173 295.60618559413
49	266839 8710 234 227772 1.11 41.91 409 36.55 36.55 14948.95 546384.1225
48	275549 12762 234 227772 1.11 41.91 409 248.23483963013 1384.8038154008 334596.39473383 318013660.92609
47	288311 12745 234 227772 1.11 41.91 409 26.741191455685 29.400477668384 11393.342235498 317589.7068015
45	301056 13573 234 227772 1.11 41.91 409 -0.38765535227545 0.36024908456962 -2.4772385464397 22.720075276
44	314629 12762 234 227772 1.11 41.91 409 36.939723626541 37.874815552383 15256.901117615 569147.10294422
46	327391 7074 234 227772 1.11 41.91 409 2 2 818 1636
58	334465 16324 1046 227465 1.299193500105 41.899195534646 407 0.099988232996 0.100001594804 40.700003609609 4.0700007290689
57	350789 16328 842 227267 1.269560850073 41.86956290675 407 0.099988216565 0.100001594531 40.700003631745 4.0700007334992
56	367117 11073 1046 227465 1.299193500105 41.899195534646 407 2 2 814 1628
55	378190 11077 842 227267 1.269560850073 41.86956290675 407 2 2 814 1628
54	389267 573 5058 222570 2 41 40 0 0 0 0
53	389840 1087 5058 222570 2 41 40 0.022755924409 0.026261169959 1.04651292413 0.02739163813936
52	390927 573 5058 222570 2 41 40 2 2 80 160
73	391500 13230 235 227773 1.11 41.91 409 -1.563296546947 1.5537373667328 3.4032567983951 485.6602362597
72	404730 13290 235 227773 1.11 41.91 409 -1.3303288290533 1.3196066978537 -2.9627342606556 319.08902734289
71	418020 8710 235 227773 1.11 41.91 409 36.55 36.55 14948.95 546384.1225
70	426730 12763 235 227773 1.11 41.91 409 207.01262588501 1343.5326276213 317704.33362532 291082377.75752
69	439493 12756 235 227773 1.11 41.91 409 26.694039503677 29.343244229121 11392.864504806 317574.98070897
67	452249 13842 235 227773 1.11 41.91 409 -0.10375661153078 0.12654703286631 0.51094447318195 1.2852426131439
66	466091 12756 235 227773 1.11 41.91 409 37.169848950076 37.546014000695 15256.05155389 569067.99891569
68	478847 7074 235 227773 1.11 41.91 409 3 3 1227 3681
80	485921 16311 1180 227606 1.300215187618 41.900203974828 407 0.099988178743 0.100001594782 40.699990362278 4.0699980797398
79	502232 16312 848 227273 1.269560987576 41.869563044421 407 0.099988216577 0.100001594512 40.700003631913 4.0700007335328
78	518544 11070 1180 227606 1.300215187618 41.900203974828 407 3 3 1221 3663
77	529614 11057 848 227273 1.269560987576 41.869563044421 407 3 3 1221 3663
76	540671 573 5059 222571 2 41 40 0 0 0 0
75	541244 1087 5059 222571 2 41 40 0.022754786906 0.026261169759 1.046511786477 0.027391586362905
74	542331 573 5059 222571 2 41 40 3 3 120 360
117	542904 13667 237 227775 1.11 41.91 409 -1.4359257209767 1.8792456010855 46.205295155707 429.91551730668
116	556571 13717 237 227775 1.11 41.91 409 -1.2576585516616 1.6190275973294 32.100169435587 295.33340455758
115	570288 9119 237 227775 1.11 41.91 409 36.55 36.55 14948.95 546384.1225
114	579407 13164 237 227775 1.11 41.91 409 124.56818313599 1281.2355809125 284626.66133569 243084236.37642
113	592571 13167 237 227775 1.11 41.91 409 26.774429043857 31.556342692465 11595.56652522 329286.04049039
111	605738 14017 237 227775 1.11 41.91 409 -0.04536068071722 2.2080083999994 170.80031907591 284.56083571885
110	619755 13157 237 227775 1.11 41.91 409 37.222213745117 54.293409805854 16265.426402659 656752.51702917
112	632912 7483 237 227775 1.11 41.91 409 5 5 2045 10225
124	640395 16731 1112 227543 1.299593912613 41.899595880349 407 0.099988197402 0.100001594784 40.700003542804 4.0700007157137
123	657126 16738 860 227285 1.269561262581 41.869563252807 407 0.099988215432 0.100001594545 40.700003565294 4.070000720209
122	673864 11480 1112 227543 1.299593912613 41.899595880349 407 5 5 2035 10175
121	685344 11482 860 227285 1.269561262581 41.869563252807 407 5 5 2035 10175
120	696826 613 5061 222573 2 41 40 0 0 0 0
119	697439 1128 5061 222573 2 41 40 0.022754511901 0.026261175304 1.046511568027 0.027391576816822
118	698567 613 5061 222573 2 41 40 5 5 200 1000
139	699180 13664 238 227776 1.11 41.91 409 -1.440017143448 1.714481202104 23.393397714265 420.87639478264
138	712844 13749 238 227776 1.11 41.91 409 -1.2276839995007 1.5380671471242 20.01036240448 277.25682309664
137	726593 9119 238 227776 1.11 41.91 409 36.55 36.55 14948.95 546384.1225
136	735712 13156 238 227776 1.11 41.91 409 83.345957946777 1228.8552186599 267268.85056428 219192231.91334
135	748868 13171 238 227776 1.11 41.91 409 26.805634162858 30.081840887733 11483.564202554 322686.55088069
133	762039 14113 238 227776 1.11 41.91 409 -0.032703488760461 1.4747886216848 111.68132097152 140.45475561712
132	776152 13168 238 227776 1.11 41.91 409 37.222220454219 48.356172361355 15719.570724947 607057.21612661
134	789320 7483 238 227776 1.11 41.91 409 6 6 2454 14724
146	796803 16718 1249 227669 1.305607600126 41.905609357545 407 0.099988189221 0.100001594792 40.700003332487 4.0700006736509
145	813521 16732 866 227291 1.269561400083 41.869563427327 407 0.099988215855 0.100001594555 40.700003602312 4.0700007276126
144	830253 11467 1249 227669 1.305607600126 41.905609357545 407 6 6 2442 14652
143	841720 11480 866 227291 1.269561400083 41.869563427327 407 6 6 2442 14652
142	853200 613 5062 222574 2 41 40 0 0 0 0
141	853813 1126 5062 222574 2 41 40 0.022755374399 0.026261171285 1.04651239712 0.027391614315213
140	854939 613 5062 222574 2 41 40 6 6 240 1440
161	855552 13691 239 227777 1.11 41.91 409 -1.369425334174 1.6531723580616 17.580658073714 382.39389362785
160	869243 13771 239 227777 1.11 41.91 409 -1.1973870417812 1.3447666663762 8.877845108967 261.70154726666
159	883014 9119 239 227777 1.11 41.91 409 36.55 36.55 14948.95 546384.1225
158	892133 13147 239 227777 1.11 41.91 409 42.123735618591 1181.7986832372 250205.34107793 197418118.23221
157	905280 13167 239 227777 1.11 41.91 409 26.83562604102 29.20307447608 11424.827891849 319315.95438285
155	918447 14175 239 227777 1.11 41.91 409 -0.03311490458707 1.109039151231 58.536207080985 50.401051236378
154	932622 13169 239 227777 1.11 41.91 409 37.222222293926 43.03407808109 15426.334760143 582387.57649595
156	945791 7483 239 227777 1.11 41.91 409 7 7 2863 20041
168	953274 16711 980 227399 1.292097812592 41.892099897807 407 0.099988188613 0.10000159458 40.699990660283 4.0699981393395
167	969985 16716 872 227297 1.269561537586 41.869563584104 407 0.099988216218 0.100001594563 40.700003621586 4.0700007314674
166	986701 11475 980 227399 1.292097812592 41.892099897807 407 7 7 2849 19943
165	998176 11462 872 227297 1.269561537586 41.869563584104 407 7 7 2849 19943
164	1009638 613 5063 222575 2 41 40 0 0 0 0
163	1010251 1124 5063 222575 2 41 40 0.022755236896 0.02626117028 1.046512243543 0.027391607213478
162	1011375 613 5063 222575 2 41 40 7 7 280 1960
88	1011988 12781 236 227778 1.11 41.91 410 0 37.453800222413 13544.299927386 482630.54637147
89	1024769 13764 236 227778 1.11 41.91 410 -4.4293847527335 0.053887417471575 -378.30999772012 1418.2806216367
90	1038533 7092 236 227778 1.11 41.91 410 4 4 1640 6560
91	1045625 12783 236 227778 1.11 41.91 410 26.749550257154 32.997234223375 11798.616842763 340697.26822006
92	1058408 12777 236 227778 1.11 41.91 410 165.7903968811 1339.5470497367 303871.05895248 271557759.02126
93	1071185 8732 236 227778 1.11 41.91 410 36.55 36.55 14985.5 547720.025
94	1079917 13346 236 227778 1.11 41.91 410 -1.2928257179105 2.4106405473034 42.025889568082 365.93883368988
95	1093263 13274 236 227778 1.11 41.91 410 -1.5258301762812 2.7093241877649 37.656673956309 533.36875607813
96	1106537 573 5060 222572 2 41 40 4 4 160 640
97	1107110 1089 5060 222572 2 41 40 0.022755649404 0.026261181725 1.046512759632 0.027391631425119
98	1108199 573 5060 222572 2 41 40 0 0 0 0
99	1108772 11053 854 227279 1.269561125078 41.869563058452 407 4 4 1628 6512
100	1119825 11485 1312 227732 1.306020875131 41.906061404223 407 4 4 1628 6512
101	1131310 16713 854 227279 1.269561125078 41.869563058452 407 0.099988215104 0.100001594528 40.700003508442 4.0700007088386
102	1148023 16734 1312 227732 1.306020875131 41.906061404223 407 0.099897584375 0.100092575068 40.69997710416 4.0699961701455
