file 1683396 1501513612                                         
version 2
run SinusoidalNoAttack-91-20170731-17:06:16-70314
attr CACCSpacing 5
attr attackAcc -30
attr attackPos 7
attr attackSpeed 150
attr attackStart 30
attr attacker 0
attr beaconInterval 0.1
attr configname SinusoidalNoAttack
attr controller 2
attr datetime 20170731-17:06:16
attr experiment SinusoidalNoAttack
attr fakeAcc "(0 == 4)"
attr fakePos "(0 == 2)"
attr fakeSpeed "(0 == 3)"
attr inifile omnetpp_91.ini
attr iterationvars "$controller=2, $sController=\"PLOEG\", $CACCSpacing=5, $leaderSpeed=120, $attacker=0, $attackStart=30, $attackSpeed=150, $attackPos=7, $attackAcc=-30, $0=2, $1=0.5, $nCars=8, $platoonSize=8, $nLanes=1, $beaconInterval=0.1, $priority=2, $packetSize=200, $ploegH=0.5, $leaderHeadway=1.2, $fakeSpeed=(0 == 3), $fakeAcc=(0 == 4), $fakePos=(0 == 2)"
attr iterationvarsf controller=2,sController=PLOEG,CACCSpacing=5,leaderSpeed=120,attacker=0,attackStart=30,attackSpeed=150,attackPos=7,attackAcc=-30,2,0.5,nCars=8,platoonSize=8,nLanes=1,beaconInterval=0.1,priority=2,packetSize=200,ploegH=0.5,leaderHeadway=1.2,fakeSpeed=(0_==_3),fakeAcc=(0_==_4),fakePos=(0_==_2)-
attr leaderHeadway 1.2
attr leaderSpeed 120
attr measurement "$controller=2, $sController=\"PLOEG\", $CACCSpacing=5, $leaderSpeed=120, $attacker=0, $attackStart=30, $attackSpeed=150, $attackPos=7, $attackAcc=-30, $0=2, $1=0.5, $nCars=8, $platoonSize=8, $nLanes=1, $beaconInterval=0.1, $priority=2, $packetSize=200, $ploegH=0.5, $leaderHeadway=1.2, $fakeSpeed=(0 == 3), $fakeAcc=(0 == 4), $fakePos=(0 == 2)"
attr nCars 8
attr nLanes 1
attr network scenario
attr packetSize 200
attr platoonSize 8
attr ploegH 0.5
attr priority 2
attr processid 70314
attr repetition 1
attr replication #1
attr resultdir results
attr runnumber 91
attr sController "\"PLOEG\""
attr seedset 1
param **.coreDebug false
param **.debug false
param **.headway 0.1s
param **.numberOfCars 8
param **.numberOfCarsPerPlatoon 8
param **.numberOfLanes 1
param **.numericController 2
param **.traffic.nCars 8
param **.traffic.nLanes 1
param **.traffic.platoonInsertDistance 2m
param **.traffic.platoonInsertHeadway 0.5s
param **.traffic.platoonInsertSpeed 120kmph
param **.traffic.platoonInsertTime "1 s"
param **.traffic.platoonLeaderHeadway 1.2s
param **.traffic.platoonSize 8
param **.traffic.platooningVType "\"vtypeauto\""
param **.traffic_type "\"PlatoonsTrafficManager\""
param *.**.nic.mac1609_4.bitrate 6Mbps
param *.**.nic.mac1609_4.txPower 100mW
param *.**.nic.mac1609_4.useServiceChannel false
param *.**.nic.phy80211p.analogueModels "xmldoc(\"config.xml\")"
param *.**.nic.phy80211p.decider "xmldoc(\"config.xml\")"
param *.**.nic.phy80211p.maxTXPower 100mW
param *.**.nic.phy80211p.sensitivity -94dBm
param *.**.nic.phy80211p.thermalNoise -95dBm
param *.**.nic.phy80211p.usePropagationDelay true
param *.**.nic.phy80211p.useThermalNoise true
param *.annotations.draw false
param *.connectionManager.alpha 2.0
param *.connectionManager.carrierFrequency "5.890e9 Hz"
param *.connectionManager.pMax 100mW
param *.connectionManager.sat -94dBm
param *.connectionManager.sendDirect true
param *.manager.autoShutdown true
param *.manager.commandLine "\"sumo --remote-port $port --seed $seed --configuration-file $configFile\""
param *.manager.configFile "\"./sumocfg/freeway.sumo.cfg\""
param *.manager.host "\"localhost\""
param *.manager.margin 25
param *.manager.moduleDisplayString "\"\""
param *.manager.moduleName "\"node\""
param *.manager.moduleType "\"Car\""
param *.manager.updateInterval 0.01s
param *.node[*].appl.attackStart 30s
param *.node[*].appl.attackerType 0
param *.node[*].appl.simulationDuration "60 s"
param *.node[*].appl_type "\"SimplePlatooningApp\""
param *.node[*].helper.nCars 8
param *.node[*].helper.nLanes 1
param *.node[*].helper.platoonSize 8
param *.node[*].helper_type "\"PositionHelper\""
param *.node[*].mobility.x 0
param *.node[*].mobility.y 0
param *.node[*].mobility.z 1.895
param *.node[*].prot.attackStart 30s
param *.node[*].prot.attackerType 0
param *.node[*].prot.attackingNode 3
param *.node[*].prot.beaconingInterval 0.1s
param *.node[*].prot.fakeAcc "(0 == 4)"
param *.node[*].prot.fakePos "(0 == 2)"
param *.node[*].prot.fakeSpeed "(0 == 3)"
param *.node[*].prot.maliciousAcc "-30 mpss"
param *.node[*].prot.maliciousSpeed 150kmph
param *.node[*].prot.packetSize 200
param *.node[*].prot.priority 2
param *.node[*].prot.shiftX "7 m"
param *.node[*].prot.useControllerAcceleration true
param *.node[*].protocol_type "\"SimplePlatooningBeaconing\""
param *.node[*].scenario.accHeadway 0.1s
param *.node[*].scenario.caccC1 0.5
param *.node[*].scenario.caccOmegaN "0.2 Hz"
param *.node[*].scenario.caccSpacing 5m
param *.node[*].scenario.caccXi 1
param *.node[*].scenario.controller "\"PLOEG\""
param *.node[*].scenario.engineTau "0.5 s"
param *.node[*].scenario.leaderHeadway 1.2s
param *.node[*].scenario.leaderOscillationFrequency "0.2 Hz"
param *.node[*].scenario.leaderSpeed 120kmph
param *.node[*].scenario.oscillationAmplitude "10 kmph"
param *.node[*].scenario.ploegH 0.5s
param *.node[*].scenario.ploegKd 0.7
param *.node[*].scenario.ploegKp 0.2
param *.node[*].scenario.startOscillating "5 s"
param *.node[*].scenario.useRealisticEngine false
param *.node[*].scenario_type "\"SinusoidalScenario\""
param *.node[*].unicast.packetLossRate 0
param *.obstacles.debug false
param *.playgroundSizeX 65000m
param *.playgroundSizeY 25000m
param *.playgroundSizeZ 50m
param *.world.use2D false
param *.world.useTorus false

vector 0  scenario.node[0].appl  distance  ETV
vector 1  scenario.node[0].appl  relativeSpeed  ETV
vector 2  scenario.node[0].appl  nodeId  ETV
vector 6  scenario.node[0].appl  acceleration  ETV
vector 7  scenario.node[0].appl  controllerAcceleration  ETV
vector 3  scenario.node[0].appl  speed  ETV
vector 4  scenario.node[0].appl  posx  ETV
vector 5  scenario.node[0].appl  posy  ETV
vector 22  scenario.node[1].appl  distance  ETV
vector 23  scenario.node[1].appl  relativeSpeed  ETV
vector 24  scenario.node[1].appl  nodeId  ETV
vector 28  scenario.node[1].appl  acceleration  ETV
vector 29  scenario.node[1].appl  controllerAcceleration  ETV
vector 25  scenario.node[1].appl  speed  ETV
vector 26  scenario.node[1].appl  posx  ETV
vector 27  scenario.node[1].appl  posy  ETV
vector 44  scenario.node[2].appl  distance  ETV
vector 45  scenario.node[2].appl  relativeSpeed  ETV
vector 46  scenario.node[2].appl  nodeId  ETV
vector 50  scenario.node[2].appl  acceleration  ETV
vector 51  scenario.node[2].appl  controllerAcceleration  ETV
vector 47  scenario.node[2].appl  speed  ETV
vector 48  scenario.node[2].appl  posx  ETV
vector 49  scenario.node[2].appl  posy  ETV
vector 66  scenario.node[3].appl  distance  ETV
vector 67  scenario.node[3].appl  relativeSpeed  ETV
vector 68  scenario.node[3].appl  nodeId  ETV
vector 72  scenario.node[3].appl  acceleration  ETV
vector 73  scenario.node[3].appl  controllerAcceleration  ETV
vector 69  scenario.node[3].appl  speed  ETV
vector 70  scenario.node[3].appl  posx  ETV
vector 71  scenario.node[3].appl  posy  ETV
vector 88  scenario.node[4].appl  distance  ETV
vector 89  scenario.node[4].appl  relativeSpeed  ETV
vector 90  scenario.node[4].appl  nodeId  ETV
vector 94  scenario.node[4].appl  acceleration  ETV
vector 95  scenario.node[4].appl  controllerAcceleration  ETV
vector 91  scenario.node[4].appl  speed  ETV
vector 92  scenario.node[4].appl  posx  ETV
vector 93  scenario.node[4].appl  posy  ETV
vector 110  scenario.node[5].appl  distance  ETV
vector 111  scenario.node[5].appl  relativeSpeed  ETV
vector 112  scenario.node[5].appl  nodeId  ETV
vector 116  scenario.node[5].appl  acceleration  ETV
vector 117  scenario.node[5].appl  controllerAcceleration  ETV
vector 113  scenario.node[5].appl  speed  ETV
vector 114  scenario.node[5].appl  posx  ETV
vector 115  scenario.node[5].appl  posy  ETV
vector 132  scenario.node[6].appl  distance  ETV
vector 133  scenario.node[6].appl  relativeSpeed  ETV
vector 134  scenario.node[6].appl  nodeId  ETV
vector 138  scenario.node[6].appl  acceleration  ETV
vector 139  scenario.node[6].appl  controllerAcceleration  ETV
vector 135  scenario.node[6].appl  speed  ETV
vector 136  scenario.node[6].appl  posx  ETV
vector 137  scenario.node[6].appl  posy  ETV
vector 154  scenario.node[7].appl  distance  ETV
vector 155  scenario.node[7].appl  relativeSpeed  ETV
vector 156  scenario.node[7].appl  nodeId  ETV
vector 160  scenario.node[7].appl  acceleration  ETV
vector 161  scenario.node[7].appl  controllerAcceleration  ETV
vector 157  scenario.node[7].appl  speed  ETV
vector 158  scenario.node[7].appl  posx  ETV
vector 159  scenario.node[7].appl  posy  ETV
vector 58  scenario.node[2].prot  frontDelay  ETV
vector 56  scenario.node[2].prot  frontDelayId  ETV
vector 102  scenario.node[4].prot  frontDelay  ETV
vector 100  scenario.node[4].prot  frontDelayId  ETV
vector 146  scenario.node[6].prot  frontDelay  ETV
vector 144  scenario.node[6].prot  frontDelayId  ETV
vector 168  scenario.node[7].prot  frontDelay  ETV
vector 166  scenario.node[7].prot  frontDelayId  ETV
vector 124  scenario.node[5].prot  frontDelay  ETV
vector 122  scenario.node[5].prot  frontDelayId  ETV
vector 35  scenario.node[1].prot  leaderDelay  ETV
vector 33  scenario.node[1].prot  leaderDelayId  ETV
vector 36  scenario.node[1].prot  frontDelay  ETV
vector 34  scenario.node[1].prot  frontDelayId  ETV
vector 57  scenario.node[2].prot  leaderDelay  ETV
vector 55  scenario.node[2].prot  leaderDelayId  ETV
vector 79  scenario.node[3].prot  leaderDelay  ETV
vector 77  scenario.node[3].prot  leaderDelayId  ETV
vector 101  scenario.node[4].prot  leaderDelay  ETV
vector 99  scenario.node[4].prot  leaderDelayId  ETV
vector 123  scenario.node[5].prot  leaderDelay  ETV
vector 121  scenario.node[5].prot  leaderDelayId  ETV
vector 145  scenario.node[6].prot  leaderDelay  ETV
vector 143  scenario.node[6].prot  leaderDelayId  ETV
vector 167  scenario.node[7].prot  leaderDelay  ETV
vector 165  scenario.node[7].prot  leaderDelayId  ETV
vector 80  scenario.node[3].prot  frontDelay  ETV
vector 78  scenario.node[3].prot  frontDelayId  ETV
vector 8  scenario.node[0].prot  nodeId  ETV
vector 9  scenario.node[0].prot  busyTime  ETV
vector 10  scenario.node[0].prot  collisions  ETV
vector 30  scenario.node[1].prot  nodeId  ETV
vector 31  scenario.node[1].prot  busyTime  ETV
vector 32  scenario.node[1].prot  collisions  ETV
vector 52  scenario.node[2].prot  nodeId  ETV
vector 53  scenario.node[2].prot  busyTime  ETV
vector 54  scenario.node[2].prot  collisions  ETV
vector 74  scenario.node[3].prot  nodeId  ETV
vector 75  scenario.node[3].prot  busyTime  ETV
vector 76  scenario.node[3].prot  collisions  ETV
vector 96  scenario.node[4].prot  nodeId  ETV
vector 97  scenario.node[4].prot  busyTime  ETV
vector 98  scenario.node[4].prot  collisions  ETV
vector 118  scenario.node[5].prot  nodeId  ETV
vector 119  scenario.node[5].prot  busyTime  ETV
vector 120  scenario.node[5].prot  collisions  ETV
vector 140  scenario.node[6].prot  nodeId  ETV
vector 141  scenario.node[6].prot  busyTime  ETV
vector 142  scenario.node[6].prot  collisions  ETV
vector 162  scenario.node[7].prot  nodeId  ETV
vector 163  scenario.node[7].prot  busyTime  ETV
vector 164  scenario.node[7].prot  collisions  ETV
7	11227 13859 232 328174 1.11 59.91 589 -1.5 1.5 -14.445953361693 993.24092335941
6	25086 18579 232 328174 1.11 59.91 589 -1.4722746795918 1.4513434175775 -12.507247963452 675.29835166926
5	43665 12081 232 328174 1.11 59.91 589 36.55 36.55 21527.95 786846.5725
4	55746 17912 232 328174 1.11 59.91 589 194.60539741556 2158.9215277354 693933.44799841 1007242424.2949
3	73658 17913 232 328174 1.11 59.91 589 32.043521415285 35.298048086563 19676.061011579 657739.0394163
1	91571 9725 232 328174 1.11 59.91 589 0 0 0 0
0	101296 10314 232 328174 1.11 59.91 589 -1 -1 -589 589
2	111610 9725 232 328174 1.11 59.91 589 0 0 0 0
10	121335 858 5168 328662 2 60 59 0 0 0 0
9	122193 1154 5168 328662 2 60 59 0.023297 0.02625 1.545797 0.040508375209
8	123347 799 5168 328662 2 60 59 0 0 0 0
29	124146 19151 233 328175 1.11 59.91 589 -1.5589916948615 1.5498333179971 -12.740299045544 771.91975035357
28	143297 19205 233 328175 1.11 59.91 589 -1.4671856262659 1.39980369147 -6.3834457931165 541.56638191904
27	162502 12670 233 328175 1.11 59.91 589 36.55 36.55 21527.95 786846.5725
26	175172 18497 233 328175 1.11 59.91 589 171.93872566223 2136.6940966744 680557.97082718 976054301.28854
25	193669 18501 233 328175 1.11 59.91 589 32.204425943775 35.149876953461 19680.673241742 657966.59880107
23	212170 19553 233 328175 1.11 59.91 589 -0.76538763163892 0.75598109557163 -4.4871576835647 164.85158117882
22	231723 18505 233 328175 1.11 59.91 589 18.028021879268 19.640566464955 11019.569415832 206277.47221476
24	250228 10314 233 328175 1.11 59.91 589 1 1 589 589
36	260542 23695 1238 328624 1.297803268238 59.997808533728 588 0.099999199101 0.100012240327 58.800004475217 5.8800009007549
35	284237 23695 1238 328624 1.297803268238 59.997808533728 588 0.099999199101 0.100012240327 58.800004475217 5.8800009007549
34	307932 16107 1238 328624 1.297803268238 59.997808533728 588 1 1 588 588
33	324039 16107 1238 328624 1.297803268238 59.997808533728 588 1 1 588 588
32	340146 858 5169 328663 2 60 59 0 0 0 0
31	341004 1213 5169 328663 2 60 59 0.023297 0.02625 1.545797 0.040508375209
30	342217 858 5169 328663 2 60 59 1 1 59 59
51	343075 19191 234 328176 1.11 59.91 589 -1.5234274832732 1.4627998918205 -5.935657536103 589.22319266406
50	362266 19292 234 328176 1.11 59.91 589 -1.373156928468 1.2582421862263 0.30547433356247 414.25925334454
49	381558 12670 234 328176 1.11 59.91 589 36.55 36.55 21527.95 786846.5725
48	394228 18500 234 328176 1.11 59.91 589 149.2720615387 2114.0548894892 667183.14834169 945470887.058
47	412728 18496 234 328176 1.11 59.91 589 32.348333091178 35.021552371146 19681.181652482 657925.48612317
45	431224 19548 234 328176 1.11 59.91 589 -0.69754171968457 0.65524923860589 -0.44457628165203 113.30442218193
44	450772 18499 234 328176 1.11 59.91 589 18.14044207471 19.526712864385 11018.832653713 206217.36284205
46	469271 10314 234 328176 1.11 59.91 589 2 2 1178 2356
58	479585 23712 832 328218 1.212436285335 59.912441546244 588 0.099999199447 0.10001224033 58.800004470636 5.8800008998387
57	503297 23702 1244 328630 1.297803343846 59.997808609066 588 0.099999199214 0.100012240267 58.800004474947 5.8800009007009
56	526999 16117 832 328218 1.212436285335 59.912441546244 588 2 2 1176 2352
55	543116 16118 1244 328630 1.297803343846 59.997808609066 588 2 2 1176 2352
54	559234 858 5170 328664 2 60 59 0 0 0 0
53	560092 1213 5170 328664 2 60 59 0.023296 0.02625 1.545796 0.040508328616
52	561305 858 5170 328664 2 60 59 2 2 118 236
73	562163 19290 235 328177 1.11 59.91 589 -1.432759675013 1.318983801021 1.0405427945052 452.35456550562
72	581453 19362 235 328177 1.11 59.91 589 -1.2644132122176 1.1141405606182 5.2695898766451 319.44896103533
71	600815 12670 235 328177 1.11 59.91 589 36.55 36.55 21527.95 786846.5725
70	613485 18505 235 328177 1.11 59.91 589 126.60539741516 2091.1399729617 653809.24614081 915497968.41982
69	631990 18503 235 328177 1.11 59.91 589 32.465887377838 34.919684167718 19678.869807132 657713.45875194
67	650493 19569 235 328177 1.11 59.91 589 -0.6449859778489 0.58165310321353 2.308790606677 87.180267342273
66	670062 18495 235 328177 1.11 59.91 589 18.203950687758 19.472249806845 11017.855963972 206164.53883145
68	688557 10314 235 328177 1.11 59.91 589 3 3 1767 5301
80	698871 23710 1312 328707 1.307225419454 60.007217685351 588 0.099999199204 0.100012237282 58.799991475624 5.8799983006877
79	722581 23696 1250 328636 1.297803419454 59.997808685369 588 0.099999199202 0.100012240321 58.800004475642 5.8800009008399
78	746277 16117 1312 328707 1.307225419454 60.007217685351 588 3 3 1764 5292
77	762394 16112 1250 328636 1.297803419454 59.997808685369 588 3 3 1764 5292
76	778506 858 5171 328665 2 60 59 0 0 0 0
75	779364 1213 5171 328665 2 60 59 0.023297 0.02625 1.545797 0.040508375209
74	780577 858 5171 328665 2 60 59 3 3 177 531
95	781435 19336 236 328178 1.11 59.91 589 -1.3157132249554 1.1590127182287 5.9492620890743 346.60354579193
94	800771 19496 236 328178 1.11 59.91 589 -1.1539418138327 0.97416327155528 7.3164242202267 248.16369280218
93	820267 12670 236 328178 1.11 59.91 589 36.55 36.55 21527.95 786846.5725
92	832937 18496 236 328178 1.11 59.91 589 103.93872566223 2068.0945594271 640437.19237202 886139319.5873
91	851433 18513 236 328178 1.11 59.91 589 32.56848558912 34.832328531345 19675.149698341 657418.01016808
89	869946 19593 236 328178 1.11 59.91 589 -0.58958697016077 0.5100030188633 3.6674128915768 67.578952118578
88	889539 18483 236 328178 1.11 59.91 589 18.258968215366 19.426505870293 11015.979366609 206081.14835168
90	908022 10314 236 328178 1.11 59.91 589 4 4 2356 9424
102	918336 24296 902 328288 1.235040436551 59.935045699538 588 0.099999199306 0.100012240424 58.800004472714 5.8800009002543
101	942632 24299 1256 328642 1.297803495061 59.997808762183 588 0.099999199091 0.100012240441 58.800004476849 5.8800009010813
100	966931 16690 902 328288 1.235040436551 59.935045699538 588 4 4 2352 9408
99	983621 16109 1256 328642 1.297803495061 59.997808762183 588 4 4 2352 9408
98	999730 858 5172 328666 2 60 59 0 0 0 0
97	1000588 1213 5172 328666 2 60 59 0.023297 0.02625 1.545797 0.040508375209
96	1001801 858 5172 328666 2 60 59 4 4 236 944
117	1002659 20046 237 328179 1.11 59.91 589 -1.1995100428876 1.0169793077319 7.7715369958482 269.78077604998
116	1022705 20112 237 328179 1.11 59.91 589 -1.0511926454321 0.85223312924256 6.3969157208199 194.14134047628
115	1042817 13259 237 328179 1.11 59.91 589 36.55 36.55 21527.95 786846.5725
114	1056076 19079 237 328179 1.11 59.91 589 81.272061538696 2045.0790047179 627067.05498021 857395031.53187
113	1075155 19077 237 328179 1.11 59.91 589 32.658729057238 34.756159011181 19671.62450313 657145.57624094
111	1094232 20158 237 328179 1.11 59.91 589 -0.53713310667248 0.44629490286231 3.4520309696989 52.789803710717
110	1114390 19075 237 328179 1.11 59.91 589 18.307242791431 19.38652772183 11014.066887911 205999.12786031
112	1133465 10903 237 328179 1.11 59.91 589 5 5 2945 14725
124	1144368 24261 1178 328558 1.297389965807 59.997382234104 588 0.0999991985 0.1000122385 58.799991478024 5.8799983011677
123	1168629 24284 1262 328648 1.297803570669 59.997808838978 588 0.099999198944 0.100012240571 58.800004478036 5.8800009013187
122	1192913 16712 1178 328558 1.297389965807 59.997382234104 588 5 5 2940 14700
121	1209625 16705 1262 328648 1.297803570669 59.997808838978 588 5 5 2940 14700
120	1226330 917 5173 328667 2 60 59 0 0 0 0
119	1227247 1272 5173 328667 2 60 59 0.023297 0.02625 1.545797 0.040508375209
118	1228519 917 5173 328667 2 60 59 5 5 295 1475
139	1229436 20083 238 328180 1.11 59.91 589 -1.0923888657005 0.88937478804737 6.5054772363698 210.44995624918
138	1249519 20134 238 328180 1.11 59.91 589 -0.95900154129538 0.74719698234063 3.461038889759 151.12197797432
137	1269653 13259 238 328180 1.11 59.91 589 36.55 36.55 21527.95 786846.5725
136	1282912 19095 238 328180 1.11 59.91 589 58.605393600464 2022.2078457106 613698.22333518 829262421.20582
135	1302007 19100 238 328180 1.11 59.91 589 32.738786695291 34.688373219077 19669.474374894 656974.0246059
133	1321107 20217 238 328180 1.11 59.91 589 -0.48977950068071 0.39131817916619 2.0861590786682 41.140342679766
132	1341324 19083 238 328180 1.11 59.91 589 18.349870745453 19.351163102908 11012.788642462 205943.36643291
134	1360407 10903 238 328180 1.11 59.91 589 6 6 3534 21204
146	1371310 24296 970 328350 1.248713587767 59.948705852636 588 0.099999199037 0.100012238899 58.799991474596 5.8799983004821
145	1395606 24280 1268 328654 1.297803646277 59.997808915345 588 0.09999919882 0.100012240677 58.800004478795 5.8800009014706
144	1419886 16715 970 328350 1.248713587767 59.948705852636 588 6 6 3528 21168
143	1436601 16700 1268 328654 1.297803646277 59.997808915345 588 6 6 3528 21168
142	1453301 917 5174 328668 2 60 59 0 0 0 0
141	1454218 1272 5174 328668 2 60 59 0.023297 0.02625 1.545797 0.040508375209
140	1455490 917 5174 328668 2 60 59 6 6 354 2124
161	1456407 20140 239 328181 1.11 59.91 589 -0.99894009104036 0.78107476518095 3.2699387444647 164.05189274105
160	1476547 20153 239 328181 1.11 59.91 589 -0.8786080936666 0.65752666281895 -0.028892955882753 117.09873395292
159	1496700 13259 239 328181 1.11 59.91 589 36.55 36.55 21527.95 786846.5725
158	1509959 19077 239 328181 1.11 59.91 589 35.938727092743 1999.5194940962 600329.77246409 801737625.69266
157	1529036 19087 239 328181 1.11 59.91 589 32.809002417881 34.629751281133 19669.135047681 656930.50971822
155	1548123 20217 239 328181 1.11 59.91 589 -0.448172401839 0.34426513535282 0.30471682415244 31.892601286268
154	1568340 19094 239 328181 1.11 59.91 589 18.387196802887 19.32036898605 11012.444084542 205924.57023514
156	1587434 10903 239 328181 1.11 59.91 589 7 7 4123 28861
168	1598337 24279 1040 328420 1.263894663375 59.963886928374 588 0.099999198979 0.10001223815 58.799991474726 5.8799983005082
167	1622616 24275 1274 328660 1.297803721885 59.997808991118 588 0.099999198759 0.100012240747 58.80000447896 5.8800009015035
166	1646891 16700 1040 328420 1.263894663375 59.963886928374 588 7 7 4116 28812
165	1663591 16699 1274 328660 1.297803721885 59.997808991118 588 7 7 4116 28812
164	1680290 917 5175 328669 2 60 59 0 0 0 0
163	1681207 1272 5175 328669 2 60 59 0.023297 0.02625 1.545797 0.040508375209
162	1682479 917 5175 328669 2 60 59 7 7 413 2891
