file 1684052 1501512683                                         
version 2
run SinusoidalNoAttack-29-20170731-16:50:52-19380
attr CACCSpacing 12.5
attr attackAcc -30
attr attackPos 7
attr attackSpeed 150
attr attackStart 30
attr attacker 0
attr beaconInterval 0.1
attr configname SinusoidalNoAttack
attr controller 1
attr datetime 20170731-16:50:52
attr experiment SinusoidalNoAttack
attr fakeAcc "(0 == 4)"
attr fakePos "(0 == 2)"
attr fakeSpeed "(0 == 3)"
attr inifile omnetpp_29.ini
attr iterationvars "$controller=1, $sController=\"CACC\", $CACCSpacing=12.5, $leaderSpeed=50, $attacker=0, $attackStart=30, $attackSpeed=150, $attackPos=7, $attackAcc=-30, $0=12.5, $1=0, $nCars=8, $platoonSize=8, $nLanes=1, $beaconInterval=0.1, $priority=2, $packetSize=200, $ploegH=0.5, $leaderHeadway=1.2, $fakeSpeed=(0 == 3), $fakeAcc=(0 == 4), $fakePos=(0 == 2)"
attr iterationvarsf controller=1,sController=CACC,CACCSpacing=12.5,leaderSpeed=50,attacker=0,attackStart=30,attackSpeed=150,attackPos=7,attackAcc=-30,12.5,0,nCars=8,platoonSize=8,nLanes=1,beaconInterval=0.1,priority=2,packetSize=200,ploegH=0.5,leaderHeadway=1.2,fakeSpeed=(0_==_3),fakeAcc=(0_==_4),fakePos=(0_==_2)-
attr leaderHeadway 1.2
attr leaderSpeed 50
attr measurement "$controller=1, $sController=\"CACC\", $CACCSpacing=12.5, $leaderSpeed=50, $attacker=0, $attackStart=30, $attackSpeed=150, $attackPos=7, $attackAcc=-30, $0=12.5, $1=0, $nCars=8, $platoonSize=8, $nLanes=1, $beaconInterval=0.1, $priority=2, $packetSize=200, $ploegH=0.5, $leaderHeadway=1.2, $fakeSpeed=(0 == 3), $fakeAcc=(0 == 4), $fakePos=(0 == 2)"
attr nCars 8
attr nLanes 1
attr network scenario
attr packetSize 200
attr platoonSize 8
attr ploegH 0.5
attr priority 2
attr processid 19380
attr repetition 4
attr replication #4
attr resultdir results
attr runnumber 29
attr sController "\"CACC\""
attr seedset 4
param **.coreDebug false
param **.debug false
param **.headway 0.1s
param **.numberOfCars 8
param **.numberOfCarsPerPlatoon 8
param **.numberOfLanes 1
param **.numericController 1
param **.traffic.nCars 8
param **.traffic.nLanes 1
param **.traffic.platoonInsertDistance 12.5m
param **.traffic.platoonInsertHeadway 0s
param **.traffic.platoonInsertSpeed 50kmph
param **.traffic.platoonInsertTime "1 s"
param **.traffic.platoonLeaderHeadway 1.2s
param **.traffic.platoonSize 8
param **.traffic.platooningVType "\"vtypeauto\""
param **.traffic_type "\"PlatoonsTrafficManager\""
param *.**.nic.mac1609_4.bitrate 6Mbps
param *.**.nic.mac1609_4.txPower 100mW
param *.**.nic.mac1609_4.useServiceChannel false
param *.**.nic.phy80211p.analogueModels "xmldoc(\"config.xml\")"
param *.**.nic.phy80211p.decider "xmldoc(\"config.xml\")"
param *.**.nic.phy80211p.maxTXPower 100mW
param *.**.nic.phy80211p.sensitivity -94dBm
param *.**.nic.phy80211p.thermalNoise -95dBm
param *.**.nic.phy80211p.usePropagationDelay true
param *.**.nic.phy80211p.useThermalNoise true
param *.annotations.draw false
param *.connectionManager.alpha 2.0
param *.connectionManager.carrierFrequency "5.890e9 Hz"
param *.connectionManager.pMax 100mW
param *.connectionManager.sat -94dBm
param *.connectionManager.sendDirect true
param *.manager.autoShutdown true
param *.manager.commandLine "\"sumo --remote-port $port --seed $seed --configuration-file $configFile\""
param *.manager.configFile "\"./sumocfg/freeway.sumo.cfg\""
param *.manager.host "\"localhost\""
param *.manager.margin 25
param *.manager.moduleDisplayString "\"\""
param *.manager.moduleName "\"node\""
param *.manager.moduleType "\"Car\""
param *.manager.updateInterval 0.01s
param *.node[*].appl.attackStart 30s
param *.node[*].appl.attackerType 0
param *.node[*].appl.simulationDuration "60 s"
param *.node[*].appl_type "\"SimplePlatooningApp\""
param *.node[*].helper.nCars 8
param *.node[*].helper.nLanes 1
param *.node[*].helper.platoonSize 8
param *.node[*].helper_type "\"PositionHelper\""
param *.node[*].mobility.x 0
param *.node[*].mobility.y 0
param *.node[*].mobility.z 1.895
param *.node[*].prot.attackStart 30s
param *.node[*].prot.attackerType 0
param *.node[*].prot.attackingNode 3
param *.node[*].prot.beaconingInterval 0.1s
param *.node[*].prot.fakeAcc "(0 == 4)"
param *.node[*].prot.fakePos "(0 == 2)"
param *.node[*].prot.fakeSpeed "(0 == 3)"
param *.node[*].prot.maliciousAcc "-30 mpss"
param *.node[*].prot.maliciousSpeed 150kmph
param *.node[*].prot.packetSize 200
param *.node[*].prot.priority 2
param *.node[*].prot.shiftX "7 m"
param *.node[*].prot.useControllerAcceleration true
param *.node[*].protocol_type "\"SimplePlatooningBeaconing\""
param *.node[*].scenario.accHeadway 0.1s
param *.node[*].scenario.caccC1 0.5
param *.node[*].scenario.caccOmegaN "0.2 Hz"
param *.node[*].scenario.caccSpacing 12.5m
param *.node[*].scenario.caccXi 1
param *.node[*].scenario.controller "\"CACC\""
param *.node[*].scenario.engineTau "0.5 s"
param *.node[*].scenario.leaderHeadway 1.2s
param *.node[*].scenario.leaderOscillationFrequency "0.2 Hz"
param *.node[*].scenario.leaderSpeed 50kmph
param *.node[*].scenario.oscillationAmplitude "10 kmph"
param *.node[*].scenario.ploegH 0.5s
param *.node[*].scenario.ploegKd 0.7
param *.node[*].scenario.ploegKp 0.2
param *.node[*].scenario.startOscillating "5 s"
param *.node[*].scenario.useRealisticEngine false
param *.node[*].scenario_type "\"SinusoidalScenario\""
param *.node[*].unicast.packetLossRate 0
param *.obstacles.debug false
param *.playgroundSizeX 65000m
param *.playgroundSizeY 25000m
param *.playgroundSizeZ 50m
param *.world.use2D false
param *.world.useTorus false

vector 0  scenario.node[0].appl  distance  ETV
vector 1  scenario.node[0].appl  relativeSpeed  ETV
vector 2  scenario.node[0].appl  nodeId  ETV
vector 6  scenario.node[0].appl  acceleration  ETV
vector 7  scenario.node[0].appl  controllerAcceleration  ETV
vector 3  scenario.node[0].appl  speed  ETV
vector 4  scenario.node[0].appl  posx  ETV
vector 5  scenario.node[0].appl  posy  ETV
vector 22  scenario.node[1].appl  distance  ETV
vector 23  scenario.node[1].appl  relativeSpeed  ETV
vector 24  scenario.node[1].appl  nodeId  ETV
vector 28  scenario.node[1].appl  acceleration  ETV
vector 29  scenario.node[1].appl  controllerAcceleration  ETV
vector 25  scenario.node[1].appl  speed  ETV
vector 26  scenario.node[1].appl  posx  ETV
vector 27  scenario.node[1].appl  posy  ETV
vector 44  scenario.node[2].appl  distance  ETV
vector 45  scenario.node[2].appl  relativeSpeed  ETV
vector 46  scenario.node[2].appl  nodeId  ETV
vector 50  scenario.node[2].appl  acceleration  ETV
vector 51  scenario.node[2].appl  controllerAcceleration  ETV
vector 47  scenario.node[2].appl  speed  ETV
vector 48  scenario.node[2].appl  posx  ETV
vector 49  scenario.node[2].appl  posy  ETV
vector 66  scenario.node[3].appl  distance  ETV
vector 67  scenario.node[3].appl  relativeSpeed  ETV
vector 68  scenario.node[3].appl  nodeId  ETV
vector 72  scenario.node[3].appl  acceleration  ETV
vector 73  scenario.node[3].appl  controllerAcceleration  ETV
vector 69  scenario.node[3].appl  speed  ETV
vector 70  scenario.node[3].appl  posx  ETV
vector 71  scenario.node[3].appl  posy  ETV
vector 88  scenario.node[4].appl  distance  ETV
vector 89  scenario.node[4].appl  relativeSpeed  ETV
vector 90  scenario.node[4].appl  nodeId  ETV
vector 94  scenario.node[4].appl  acceleration  ETV
vector 95  scenario.node[4].appl  controllerAcceleration  ETV
vector 91  scenario.node[4].appl  speed  ETV
vector 92  scenario.node[4].appl  posx  ETV
vector 93  scenario.node[4].appl  posy  ETV
vector 110  scenario.node[5].appl  distance  ETV
vector 111  scenario.node[5].appl  relativeSpeed  ETV
vector 112  scenario.node[5].appl  nodeId  ETV
vector 116  scenario.node[5].appl  acceleration  ETV
vector 117  scenario.node[5].appl  controllerAcceleration  ETV
vector 113  scenario.node[5].appl  speed  ETV
vector 114  scenario.node[5].appl  posx  ETV
vector 115  scenario.node[5].appl  posy  ETV
vector 132  scenario.node[6].appl  distance  ETV
vector 133  scenario.node[6].appl  relativeSpeed  ETV
vector 134  scenario.node[6].appl  nodeId  ETV
vector 138  scenario.node[6].appl  acceleration  ETV
vector 139  scenario.node[6].appl  controllerAcceleration  ETV
vector 135  scenario.node[6].appl  speed  ETV
vector 136  scenario.node[6].appl  posx  ETV
vector 137  scenario.node[6].appl  posy  ETV
vector 154  scenario.node[7].appl  distance  ETV
vector 155  scenario.node[7].appl  relativeSpeed  ETV
vector 156  scenario.node[7].appl  nodeId  ETV
vector 160  scenario.node[7].appl  acceleration  ETV
vector 161  scenario.node[7].appl  controllerAcceleration  ETV
vector 157  scenario.node[7].appl  speed  ETV
vector 158  scenario.node[7].appl  posx  ETV
vector 159  scenario.node[7].appl  posy  ETV
vector 102  scenario.node[4].prot  frontDelay  ETV
vector 100  scenario.node[4].prot  frontDelayId  ETV
vector 35  scenario.node[1].prot  leaderDelay  ETV
vector 33  scenario.node[1].prot  leaderDelayId  ETV
vector 36  scenario.node[1].prot  frontDelay  ETV
vector 34  scenario.node[1].prot  frontDelayId  ETV
vector 57  scenario.node[2].prot  leaderDelay  ETV
vector 55  scenario.node[2].prot  leaderDelayId  ETV
vector 79  scenario.node[3].prot  leaderDelay  ETV
vector 77  scenario.node[3].prot  leaderDelayId  ETV
vector 101  scenario.node[4].prot  leaderDelay  ETV
vector 99  scenario.node[4].prot  leaderDelayId  ETV
vector 123  scenario.node[5].prot  leaderDelay  ETV
vector 121  scenario.node[5].prot  leaderDelayId  ETV
vector 145  scenario.node[6].prot  leaderDelay  ETV
vector 143  scenario.node[6].prot  leaderDelayId  ETV
vector 167  scenario.node[7].prot  leaderDelay  ETV
vector 165  scenario.node[7].prot  leaderDelayId  ETV
vector 80  scenario.node[3].prot  frontDelay  ETV
vector 78  scenario.node[3].prot  frontDelayId  ETV
vector 146  scenario.node[6].prot  frontDelay  ETV
vector 144  scenario.node[6].prot  frontDelayId  ETV
vector 58  scenario.node[2].prot  frontDelay  ETV
vector 56  scenario.node[2].prot  frontDelayId  ETV
vector 124  scenario.node[5].prot  frontDelay  ETV
vector 122  scenario.node[5].prot  frontDelayId  ETV
vector 168  scenario.node[7].prot  frontDelay  ETV
vector 166  scenario.node[7].prot  frontDelayId  ETV
vector 8  scenario.node[0].prot  nodeId  ETV
vector 9  scenario.node[0].prot  busyTime  ETV
vector 10  scenario.node[0].prot  collisions  ETV
vector 30  scenario.node[1].prot  nodeId  ETV
vector 31  scenario.node[1].prot  busyTime  ETV
vector 32  scenario.node[1].prot  collisions  ETV
vector 52  scenario.node[2].prot  nodeId  ETV
vector 53  scenario.node[2].prot  busyTime  ETV
vector 54  scenario.node[2].prot  collisions  ETV
vector 74  scenario.node[3].prot  nodeId  ETV
vector 75  scenario.node[3].prot  busyTime  ETV
vector 76  scenario.node[3].prot  collisions  ETV
vector 96  scenario.node[4].prot  nodeId  ETV
vector 97  scenario.node[4].prot  busyTime  ETV
vector 98  scenario.node[4].prot  collisions  ETV
vector 118  scenario.node[5].prot  nodeId  ETV
vector 119  scenario.node[5].prot  busyTime  ETV
vector 120  scenario.node[5].prot  collisions  ETV
vector 140  scenario.node[6].prot  nodeId  ETV
vector 141  scenario.node[6].prot  busyTime  ETV
vector 142  scenario.node[6].prot  collisions  ETV
vector 162  scenario.node[7].prot  nodeId  ETV
vector 163  scenario.node[7].prot  busyTime  ETV
vector 164  scenario.node[7].prot  collisions  ETV
7	11235 13860 232 328174 1.11 59.91 589 -1.5 1.5 -14.445969899918 993.24092361736
6	25095 18587 232 328174 1.11 59.91 589 -1.472274679513 1.4513434175798 -12.507264912644 675.29835211523
5	43682 12081 232 328174 1.11 59.91 589 36.55 36.55 21527.95 786846.5725
4	55763 17904 232 328174 1.11 59.91 589 163.16408119188 984.14687968983 338702.84695954 227818475.48708
3	73667 17901 232 328174 1.11 59.91 589 12.599076970844 15.853603639796 8223.2832500118 115251.79065057
1	91568 9725 232 328174 1.11 59.91 589 0 0 0 0
0	101293 10314 232 328174 1.11 59.91 589 -1 -1 -589 589
2	111607 9725 232 328174 1.11 59.91 589 0 0 0 0
10	121332 859 5234 328728 2 60 59 0 0 0 0
9	122191 1155 5234 328728 2 60 59 0.023625 0.02625 1.546125 0.040523765625
8	123346 800 5234 328728 2 60 59 0 0 0 0
29	124146 19080 233 328175 1.11 59.91 589 -1.5034793452697 1.5024511552258 -15.505713268803 989.153366759
28	143226 19159 233 328175 1.11 59.91 589 -1.4807765143683 1.4557932579843 -12.221049679667 676.42621452155
27	162385 12670 233 328175 1.11 59.91 589 36.55 36.55 21527.95 786846.5725
26	175055 18490 233 328175 1.11 59.91 589 146.66408882141 967.71145661087 328984.98066963 216802448.17245
25	193545 18486 233 328175 1.11 59.91 589 12.598396888571 15.860240166106 8223.9399639862 115270.98825763
23	212031 20081 233 328175 1.11 59.91 589 -0.064317353776309 0.062036330151821 -0.53164132532383 1.2272974846358
22	232112 18498 233 328175 1.11 59.91 589 12.416222673854 12.593464694933 7361.8794241893 92016.969837759
24	250610 10314 233 328175 1.11 59.91 589 1 1 589 589
36	260924 23708 964 328350 1.24182365114 59.941815387713 588 0.099999209348 0.100012212805 58.799990947409 5.8799981950449
35	284632 23708 964 328350 1.24182365114 59.941815387713 588 0.099999209348 0.100012212805 58.799990947409 5.8799981950449
34	308340 16118 964 328350 1.24182365114 59.941815387713 588 1 1 588 588
33	324458 16118 964 328350 1.24182365114 59.941815387713 588 1 1 588 588
32	340576 859 5235 328729 2 60 59 0 0 0 0
31	341435 1214 5235 328729 2 60 59 0.023625 0.02625 1.546125 0.040523765625
30	342649 859 5235 328729 2 60 59 1 1 59 59
51	343508 19083 234 328176 1.11 59.91 589 -1.5169291668399 1.5151528986513 -15.601275555559 999.48201690169
50	362591 19175 234 328176 1.11 59.91 589 -1.4744691989913 1.448648372652 -12.050529108656 671.79687327904
49	381766 12670 234 328176 1.11 59.91 589 36.55 36.55 21527.95 786846.5725
48	394436 18492 234 328176 1.11 59.91 589 130.16408882141 951.23307980809 319266.77430936 206106866.08304
47	412928 18505 234 328176 1.11 59.91 589 12.600918089508 15.853588423444 8224.1625022893 115273.99341372
45	431433 20321 234 328176 1.11 59.91 589 -0.0186833697044 0.016164907808376 -0.10032780629671 0.063853311071781
44	451754 18480 234 328176 1.11 59.91 589 12.467783924817 12.543059248039 7362.2108110308 92024.201364839
46	470234 10314 234 328176 1.11 59.91 589 2 2 1178 2356
58	480548 23702 1176 328562 1.281933146482 59.981937882646 588 0.099999209341 0.100012212583 58.800003947 5.8800007951115
57	504250 23691 970 328356 1.241823706178 59.941815442677 588 0.099999209348 0.10001221281 58.799990947335 5.8799981950301
56	527941 16113 1176 328562 1.281933146482 59.981937882646 588 2 2 1176 2352
55	544054 16106 970 328356 1.241823706178 59.941815442677 588 2 2 1176 2352
54	560160 859 5236 328730 2 60 59 0 0 0 0
53	561019 1214 5236 328730 2 60 59 0.023625 0.02625 1.546125 0.040523765625
52	562233 859 5236 328730 2 60 59 2 2 118 236
73	563092 19087 235 328177 1.11 59.91 589 -1.4985212117729 1.4980940365598 -15.551130754295 975.1753305414
72	582179 19197 235 328177 1.11 59.91 589 -1.4637938048324 1.4376572670466 -11.86334365181 661.19219140961
71	601376 12670 235 328177 1.11 59.91 589 36.55 36.55 21527.95 786846.5725
70	614046 18497 235 328177 1.11 59.91 589 113.66408882141 934.74523355696 309548.55074229 195732103.60154
69	632543 18507 235 328177 1.11 59.91 589 12.610401047111 15.843334079045 8224.2908455354 115270.86041478
67	651050 20476 235 328177 1.11 59.91 589 -0.015548643451297 0.013756979628226 -0.00783795499372 0.032310827562025
66	671526 18484 235 328177 1.11 59.91 589 12.473851895275 12.538741138313 7362.2261339407 92024.517338688
68	690010 10314 235 328177 1.11 59.91 589 3 3 1767 5301
80	700324 23685 1040 328426 1.262750761216 59.962755497671 588 0.099999209347 0.100012212662 58.800003947291 5.8800007951698
79	724009 23717 976 328362 1.241823761216 59.941815497673 588 0.099999209346 0.100012212816 58.799990947293 5.8799981950216
78	747726 16100 1040 328426 1.262750761216 59.962755497671 588 3 3 1764 5292
77	763826 16124 976 328362 1.241823761216 59.941815497673 588 3 3 1764 5292
76	779950 859 5237 328731 2 60 59 0 0 0 0
75	780809 1214 5237 328731 2 60 59 0.023625 0.02625 1.546125 0.040523765625
74	782023 859 5237 328731 2 60 59 3 3 177 531
95	782882 19050 236 328178 1.11 59.91 589 -1.4920639042698 1.49229795062 -15.60451723213 959.3842161255
94	801932 19185 236 328178 1.11 59.91 589 -1.4606979720389 1.4336512035925 -11.628340614791 657.77645933519
93	821117 12670 236 328178 1.11 59.91 589 36.55 36.55 21527.95 786846.5725
92	833787 18492 236 328178 1.11 59.91 589 97.164088821411 918.27546287941 299830.30393504 185678134.44812
91	852279 18496 236 328178 1.11 59.91 589 12.614864895373 15.840725425214 8224.6018392296 115277.24685237
89	870775 20175 236 328178 1.11 59.91 589 -0.026253905353641 0.025337578142937 -0.19236025770858 0.19499445523398
88	890950 18486 236 328178 1.11 59.91 589 12.458080449648 12.554501263515 7362.2530271186 92025.406522165
90	909436 10314 236 328178 1.11 59.91 589 4 4 2356 9424
102	919750 24280 904 328284 1.240526486026 59.940531223048 588 0.099999209335 0.100012212835 58.800003947858 5.8800007952832
101	944030 24283 982 328368 1.241823816254 59.941815552607 588 0.099999209347 0.100012212822 58.799990947189 5.8799981950009
100	968313 16698 904 328284 1.240526486026 59.940531223048 588 4 4 2352 9408
99	985011 16100 982 328368 1.241823816254 59.941815552607 588 4 4 2352 9408
98	1001111 859 5238 328732 2 60 59 0 0 0 0
97	1001970 1214 5238 328732 2 60 59 0.023625 0.02625 1.546125 0.040523765625
96	1003184 859 5238 328732 2 60 59 4 4 236 944
117	1004043 19689 237 328179 1.11 59.91 589 -1.4980277576731 1.4988827276692 -15.56453026042 972.7072757211
116	1023732 19796 237 328179 1.11 59.91 589 -1.4539402973632 1.4286559867266 -11.691109461304 653.61597922876
115	1043528 13259 237 328179 1.11 59.91 589 36.55 36.55 21527.95 786846.5725
114	1056787 19081 237 328179 1.11 59.91 589 80.664088821411 901.75890258548 290112.19165786 175944861.66721
113	1075868 19078 237 328179 1.11 59.91 589 12.617910875464 15.832912174144 8224.4337416361 115269.88338698
111	1094946 20703 237 328179 1.11 59.91 589 -0.034429573939356 0.035220541217294 0.28438099964706 0.3685119109272
110	1115649 19070 237 328179 1.11 59.91 589 12.477489290151 12.529040624643 7362.1089152336 92021.563375979
112	1134719 10903 237 328179 1.11 59.91 589 5 5 2945 14725
124	1145622 24280 1242 328628 1.287403311596 59.987395047666 588 0.099999209336 0.100012212834 58.800003946906 5.8800007950928
123	1169902 24275 988 328374 1.241823871292 59.941815607701 588 0.099999209345 0.100012212821 58.799990947245 5.879998195012
122	1194177 16710 1242 328628 1.287403311596 59.987395047666 588 5 5 2940 14700
121	1210887 16698 988 328374 1.241823871292 59.941815607701 588 5 5 2940 14700
120	1227585 918 5239 328733 2 60 59 0 0 0 0
119	1228503 1273 5239 328733 2 60 59 0.023625 0.02625 1.546125 0.040523765625
118	1229776 918 5239 328733 2 60 59 5 5 295 1475
139	1230694 19676 238 328180 1.11 59.91 589 -1.4889617834598 1.4892820707472 -15.43995326081 953.20495850612
138	1250370 19766 238 328180 1.11 59.91 589 -1.4484613828238 1.4236625963697 -11.653694883615 647.40831797731
137	1270136 13259 238 328180 1.11 59.91 589 36.55 36.55 21527.95 786846.5725
136	1283395 19086 238 328180 1.11 59.91 589 64.164088821411 885.2545266442 280394.01057851 166532316.10908
135	1302481 19076 238 328180 1.11 59.91 589 12.624163606279 15.824462882258 8224.3912593003 115264.88736954
133	1321557 20776 238 328180 1.11 59.91 589 -0.018955503525754 0.019374162058384 0.15939343047174 0.1092074370936
132	1342333 19080 238 328180 1.11 59.91 589 12.489891178071 12.515069056325 7362.180229699 92023.273134448
134	1361413 10903 238 328180 1.11 59.91 589 6 6 3534 21204
146	1372316 24284 1106 328486 1.26671292633 59.966704662751 588 0.099999209343 0.100012212872 58.799990947257 5.8799981950145
145	1396600 24285 994 328380 1.24182392633 59.941815662754 588 0.099999209343 0.100012212824 58.79999094726 5.8799981950151
144	1420885 16701 1106 328486 1.26671292633 59.966704662751 588 6 6 3528 21168
143	1437586 16701 994 328380 1.24182392633 59.941815662754 588 6 6 3528 21168
142	1454287 918 5240 328734 2 60 59 0 0 0 0
141	1455205 1273 5240 328734 2 60 59 0.023625 0.02625 1.546125 0.040523765625
140	1456478 918 5240 328734 2 60 59 6 6 354 2124
161	1457396 19690 239 328181 1.11 59.91 589 -1.4963534243697 1.4966188562594 -15.491110804167 972.37447573045
160	1477086 19768 239 328181 1.11 59.91 589 -1.4517793591812 1.4282120482317 -11.787767302253 653.87841394732
159	1496854 13259 239 328181 1.11 59.91 589 36.55 36.55 21527.95 786846.5725
158	1510113 19082 239 328181 1.11 59.91 589 47.664088821411 868.74554030453 270675.90219156 157440386.49355
157	1529195 19085 239 328181 1.11 59.91 589 12.61736036218 15.82884059086 8224.2965015448 115266.10766376
155	1548280 20715 239 328181 1.11 59.91 589 -0.031900536146873 0.034536306185592 0.21129470433576 0.27929141296113
154	1568995 19075 239 328181 1.11 59.91 589 12.477560308927 12.52293544028 7362.1064917907 92021.473168712
156	1588070 10903 239 328181 1.11 59.91 589 7 7 4123 28861
168	1598973 24272 1308 328694 1.289467421672 59.989472157789 588 0.099999209337 0.100012212477 58.800003946953 5.8800007951021
167	1623245 24292 1000 328386 1.241823981369 59.941815717823 588 0.099999209344 0.10001221282 58.79999094729 5.8799981950211
166	1647537 16704 1308 328694 1.289467421672 59.989472157789 588 7 7 4116 28812
165	1664241 16702 1000 328386 1.241823981369 59.941815717823 588 7 7 4116 28812
164	1680943 918 5241 328735 2 60 59 0 0 0 0
163	1681861 1273 5241 328735 2 60 59 0.023625 0.02625 1.546125 0.040523765625
162	1683134 918 5241 328735 2 60 59 7 7 413 2891
