file 1684521 1501512484                                         
version 2
run SinusoidalNoAttack-17-20170731-16:47:32-16267
attr CACCSpacing 5
attr attackAcc -30
attr attackPos 7
attr attackSpeed 150
attr attackStart 30
attr attacker 0
attr beaconInterval 0.1
attr configname SinusoidalNoAttack
attr controller 1
attr datetime 20170731-16:47:32
attr experiment SinusoidalNoAttack
attr fakeAcc "(0 == 4)"
attr fakePos "(0 == 2)"
attr fakeSpeed "(0 == 3)"
attr inifile omnetpp_17.ini
attr iterationvars "$controller=1, $sController=\"CACC\", $CACCSpacing=5, $leaderSpeed=120, $attacker=0, $attackStart=30, $attackSpeed=150, $attackPos=7, $attackAcc=-30, $0=5, $1=0, $nCars=8, $platoonSize=8, $nLanes=1, $beaconInterval=0.1, $priority=2, $packetSize=200, $ploegH=0.5, $leaderHeadway=1.2, $fakeSpeed=(0 == 3), $fakeAcc=(0 == 4), $fakePos=(0 == 2)"
attr iterationvarsf controller=1,sController=CACC,CACCSpacing=5,leaderSpeed=120,attacker=0,attackStart=30,attackSpeed=150,attackPos=7,attackAcc=-30,5,0,nCars=8,platoonSize=8,nLanes=1,beaconInterval=0.1,priority=2,packetSize=200,ploegH=0.5,leaderHeadway=1.2,fakeSpeed=(0_==_3),fakeAcc=(0_==_4),fakePos=(0_==_2)-
attr leaderHeadway 1.2
attr leaderSpeed 120
attr measurement "$controller=1, $sController=\"CACC\", $CACCSpacing=5, $leaderSpeed=120, $attacker=0, $attackStart=30, $attackSpeed=150, $attackPos=7, $attackAcc=-30, $0=5, $1=0, $nCars=8, $platoonSize=8, $nLanes=1, $beaconInterval=0.1, $priority=2, $packetSize=200, $ploegH=0.5, $leaderHeadway=1.2, $fakeSpeed=(0 == 3), $fakeAcc=(0 == 4), $fakePos=(0 == 2)"
attr nCars 8
attr nLanes 1
attr network scenario
attr packetSize 200
attr platoonSize 8
attr ploegH 0.5
attr priority 2
attr processid 16267
attr repetition 2
attr replication #2
attr resultdir results
attr runnumber 17
attr sController "\"CACC\""
attr seedset 2
param **.coreDebug false
param **.debug false
param **.headway 0.1s
param **.numberOfCars 8
param **.numberOfCarsPerPlatoon 8
param **.numberOfLanes 1
param **.numericController 1
param **.traffic.nCars 8
param **.traffic.nLanes 1
param **.traffic.platoonInsertDistance 5m
param **.traffic.platoonInsertHeadway 0s
param **.traffic.platoonInsertSpeed 120kmph
param **.traffic.platoonInsertTime "1 s"
param **.traffic.platoonLeaderHeadway 1.2s
param **.traffic.platoonSize 8
param **.traffic.platooningVType "\"vtypeauto\""
param **.traffic_type "\"PlatoonsTrafficManager\""
param *.**.nic.mac1609_4.bitrate 6Mbps
param *.**.nic.mac1609_4.txPower 100mW
param *.**.nic.mac1609_4.useServiceChannel false
param *.**.nic.phy80211p.analogueModels "xmldoc(\"config.xml\")"
param *.**.nic.phy80211p.decider "xmldoc(\"config.xml\")"
param *.**.nic.phy80211p.maxTXPower 100mW
param *.**.nic.phy80211p.sensitivity -94dBm
param *.**.nic.phy80211p.thermalNoise -95dBm
param *.**.nic.phy80211p.usePropagationDelay true
param *.**.nic.phy80211p.useThermalNoise true
param *.annotations.draw false
param *.connectionManager.alpha 2.0
param *.connectionManager.carrierFrequency "5.890e9 Hz"
param *.connectionManager.pMax 100mW
param *.connectionManager.sat -94dBm
param *.connectionManager.sendDirect true
param *.manager.autoShutdown true
param *.manager.commandLine "\"sumo --remote-port $port --seed $seed --configuration-file $configFile\""
param *.manager.configFile "\"./sumocfg/freeway.sumo.cfg\""
param *.manager.host "\"localhost\""
param *.manager.margin 25
param *.manager.moduleDisplayString "\"\""
param *.manager.moduleName "\"node\""
param *.manager.moduleType "\"Car\""
param *.manager.updateInterval 0.01s
param *.node[*].appl.attackStart 30s
param *.node[*].appl.attackerType 0
param *.node[*].appl.simulationDuration "60 s"
param *.node[*].appl_type "\"SimplePlatooningApp\""
param *.node[*].helper.nCars 8
param *.node[*].helper.nLanes 1
param *.node[*].helper.platoonSize 8
param *.node[*].helper_type "\"PositionHelper\""
param *.node[*].mobility.x 0
param *.node[*].mobility.y 0
param *.node[*].mobility.z 1.895
param *.node[*].prot.attackStart 30s
param *.node[*].prot.attackerType 0
param *.node[*].prot.attackingNode 3
param *.node[*].prot.beaconingInterval 0.1s
param *.node[*].prot.fakeAcc "(0 == 4)"
param *.node[*].prot.fakePos "(0 == 2)"
param *.node[*].prot.fakeSpeed "(0 == 3)"
param *.node[*].prot.maliciousAcc "-30 mpss"
param *.node[*].prot.maliciousSpeed 150kmph
param *.node[*].prot.packetSize 200
param *.node[*].prot.priority 2
param *.node[*].prot.shiftX "7 m"
param *.node[*].prot.useControllerAcceleration true
param *.node[*].protocol_type "\"SimplePlatooningBeaconing\""
param *.node[*].scenario.accHeadway 0.1s
param *.node[*].scenario.caccC1 0.5
param *.node[*].scenario.caccOmegaN "0.2 Hz"
param *.node[*].scenario.caccSpacing 5m
param *.node[*].scenario.caccXi 1
param *.node[*].scenario.controller "\"CACC\""
param *.node[*].scenario.engineTau "0.5 s"
param *.node[*].scenario.leaderHeadway 1.2s
param *.node[*].scenario.leaderOscillationFrequency "0.2 Hz"
param *.node[*].scenario.leaderSpeed 120kmph
param *.node[*].scenario.oscillationAmplitude "10 kmph"
param *.node[*].scenario.ploegH 0.5s
param *.node[*].scenario.ploegKd 0.7
param *.node[*].scenario.ploegKp 0.2
param *.node[*].scenario.startOscillating "5 s"
param *.node[*].scenario.useRealisticEngine false
param *.node[*].scenario_type "\"SinusoidalScenario\""
param *.node[*].unicast.packetLossRate 0
param *.obstacles.debug false
param *.playgroundSizeX 65000m
param *.playgroundSizeY 25000m
param *.playgroundSizeZ 50m
param *.world.use2D false
param *.world.useTorus false

vector 0  scenario.node[0].appl  distance  ETV
vector 1  scenario.node[0].appl  relativeSpeed  ETV
vector 2  scenario.node[0].appl  nodeId  ETV
vector 6  scenario.node[0].appl  acceleration  ETV
vector 7  scenario.node[0].appl  controllerAcceleration  ETV
vector 3  scenario.node[0].appl  speed  ETV
vector 4  scenario.node[0].appl  posx  ETV
vector 5  scenario.node[0].appl  posy  ETV
vector 22  scenario.node[1].appl  distance  ETV
vector 23  scenario.node[1].appl  relativeSpeed  ETV
vector 24  scenario.node[1].appl  nodeId  ETV
vector 28  scenario.node[1].appl  acceleration  ETV
vector 29  scenario.node[1].appl  controllerAcceleration  ETV
vector 25  scenario.node[1].appl  speed  ETV
vector 26  scenario.node[1].appl  posx  ETV
vector 27  scenario.node[1].appl  posy  ETV
vector 44  scenario.node[2].appl  distance  ETV
vector 45  scenario.node[2].appl  relativeSpeed  ETV
vector 46  scenario.node[2].appl  nodeId  ETV
vector 50  scenario.node[2].appl  acceleration  ETV
vector 51  scenario.node[2].appl  controllerAcceleration  ETV
vector 47  scenario.node[2].appl  speed  ETV
vector 48  scenario.node[2].appl  posx  ETV
vector 49  scenario.node[2].appl  posy  ETV
vector 66  scenario.node[3].appl  distance  ETV
vector 67  scenario.node[3].appl  relativeSpeed  ETV
vector 68  scenario.node[3].appl  nodeId  ETV
vector 72  scenario.node[3].appl  acceleration  ETV
vector 73  scenario.node[3].appl  controllerAcceleration  ETV
vector 69  scenario.node[3].appl  speed  ETV
vector 70  scenario.node[3].appl  posx  ETV
vector 71  scenario.node[3].appl  posy  ETV
vector 88  scenario.node[4].appl  distance  ETV
vector 89  scenario.node[4].appl  relativeSpeed  ETV
vector 90  scenario.node[4].appl  nodeId  ETV
vector 94  scenario.node[4].appl  acceleration  ETV
vector 95  scenario.node[4].appl  controllerAcceleration  ETV
vector 91  scenario.node[4].appl  speed  ETV
vector 92  scenario.node[4].appl  posx  ETV
vector 93  scenario.node[4].appl  posy  ETV
vector 110  scenario.node[5].appl  distance  ETV
vector 111  scenario.node[5].appl  relativeSpeed  ETV
vector 112  scenario.node[5].appl  nodeId  ETV
vector 116  scenario.node[5].appl  acceleration  ETV
vector 117  scenario.node[5].appl  controllerAcceleration  ETV
vector 113  scenario.node[5].appl  speed  ETV
vector 114  scenario.node[5].appl  posx  ETV
vector 115  scenario.node[5].appl  posy  ETV
vector 132  scenario.node[6].appl  distance  ETV
vector 133  scenario.node[6].appl  relativeSpeed  ETV
vector 134  scenario.node[6].appl  nodeId  ETV
vector 138  scenario.node[6].appl  acceleration  ETV
vector 139  scenario.node[6].appl  controllerAcceleration  ETV
vector 135  scenario.node[6].appl  speed  ETV
vector 136  scenario.node[6].appl  posx  ETV
vector 137  scenario.node[6].appl  posy  ETV
vector 154  scenario.node[7].appl  distance  ETV
vector 155  scenario.node[7].appl  relativeSpeed  ETV
vector 156  scenario.node[7].appl  nodeId  ETV
vector 160  scenario.node[7].appl  acceleration  ETV
vector 161  scenario.node[7].appl  controllerAcceleration  ETV
vector 157  scenario.node[7].appl  speed  ETV
vector 158  scenario.node[7].appl  posx  ETV
vector 159  scenario.node[7].appl  posy  ETV
vector 168  scenario.node[7].prot  frontDelay  ETV
vector 166  scenario.node[7].prot  frontDelayId  ETV
vector 146  scenario.node[6].prot  frontDelay  ETV
vector 144  scenario.node[6].prot  frontDelayId  ETV
vector 35  scenario.node[1].prot  leaderDelay  ETV
vector 33  scenario.node[1].prot  leaderDelayId  ETV
vector 36  scenario.node[1].prot  frontDelay  ETV
vector 34  scenario.node[1].prot  frontDelayId  ETV
vector 57  scenario.node[2].prot  leaderDelay  ETV
vector 55  scenario.node[2].prot  leaderDelayId  ETV
vector 79  scenario.node[3].prot  leaderDelay  ETV
vector 77  scenario.node[3].prot  leaderDelayId  ETV
vector 101  scenario.node[4].prot  leaderDelay  ETV
vector 99  scenario.node[4].prot  leaderDelayId  ETV
vector 123  scenario.node[5].prot  leaderDelay  ETV
vector 121  scenario.node[5].prot  leaderDelayId  ETV
vector 145  scenario.node[6].prot  leaderDelay  ETV
vector 143  scenario.node[6].prot  leaderDelayId  ETV
vector 167  scenario.node[7].prot  leaderDelay  ETV
vector 165  scenario.node[7].prot  leaderDelayId  ETV
vector 102  scenario.node[4].prot  frontDelay  ETV
vector 100  scenario.node[4].prot  frontDelayId  ETV
vector 80  scenario.node[3].prot  frontDelay  ETV
vector 78  scenario.node[3].prot  frontDelayId  ETV
vector 124  scenario.node[5].prot  frontDelay  ETV
vector 122  scenario.node[5].prot  frontDelayId  ETV
vector 58  scenario.node[2].prot  frontDelay  ETV
vector 56  scenario.node[2].prot  frontDelayId  ETV
vector 8  scenario.node[0].prot  nodeId  ETV
vector 9  scenario.node[0].prot  busyTime  ETV
vector 10  scenario.node[0].prot  collisions  ETV
vector 30  scenario.node[1].prot  nodeId  ETV
vector 31  scenario.node[1].prot  busyTime  ETV
vector 32  scenario.node[1].prot  collisions  ETV
vector 52  scenario.node[2].prot  nodeId  ETV
vector 53  scenario.node[2].prot  busyTime  ETV
vector 54  scenario.node[2].prot  collisions  ETV
vector 74  scenario.node[3].prot  nodeId  ETV
vector 75  scenario.node[3].prot  busyTime  ETV
vector 76  scenario.node[3].prot  collisions  ETV
vector 96  scenario.node[4].prot  nodeId  ETV
vector 97  scenario.node[4].prot  busyTime  ETV
vector 98  scenario.node[4].prot  collisions  ETV
vector 118  scenario.node[5].prot  nodeId  ETV
vector 119  scenario.node[5].prot  busyTime  ETV
vector 120  scenario.node[5].prot  collisions  ETV
vector 140  scenario.node[6].prot  nodeId  ETV
vector 141  scenario.node[6].prot  busyTime  ETV
vector 142  scenario.node[6].prot  collisions  ETV
vector 162  scenario.node[7].prot  nodeId  ETV
vector 163  scenario.node[7].prot  busyTime  ETV
vector 164  scenario.node[7].prot  collisions  ETV
7	11214 13859 232 328174 1.11 59.91 589 -1.5 1.5 -14.445953361693 993.24092335941
6	25073 18579 232 328174 1.11 59.91 589 -1.4722746795918 1.4513434175775 -12.507247963452 675.29835166926
5	43652 12081 232 328174 1.11 59.91 589 36.55 36.55 21527.95 786846.5725
4	55733 17909 232 328174 1.11 59.91 589 101.22663612406 2065.5427664439 638933.35759772 882780973.0218
3	73642 17913 232 328174 1.11 59.91 589 32.043521415285 35.298048086563 19676.061011579 657739.0394163
1	91555 9725 232 328174 1.11 59.91 589 0 0 0 0
0	101280 10314 232 328174 1.11 59.91 589 -1 -1 -589 589
2	111594 9725 232 328174 1.11 59.91 589 0 0 0 0
10	121319 858 5168 328662 2 60 59 0 0 0 0
9	122177 1154 5168 328662 2 60 59 0.023297 0.02625 1.545797 0.040508375209
8	123331 799 5168 328662 2 60 59 0 0 0 0
29	124130 19069 233 328175 1.11 59.91 589 -1.5233934320828 1.524149182643 -15.644289135769 1008.6178877428
28	143199 19148 233 328175 1.11 59.91 589 -1.4872877331541 1.4632261139589 -12.161285475931 682.72590239949
27	162347 12670 233 328175 1.11 59.91 589 36.55 36.55 21527.95 786846.5725
26	175017 18475 233 328175 1.11 59.91 589 92.22663230896 2056.6301655215 633629.52307202 871325228.68295
25	193492 18487 233 328175 1.11 59.91 589 32.035877871816 35.303460797363 19676.948459182 657802.93583601
23	211979 20082 233 328175 1.11 59.91 589 -0.085370908801131 0.085492686903365 -0.76237512292026 2.4587008540648
22	232061 18494 233 328175 1.11 59.91 589 4.9087708104896 5.1291573407575 2947.8522746528 14755.702635486
24	250555 10314 233 328175 1.11 59.91 589 1 1 589 589
36	260869 23686 1034 328420 1.262216930646 59.96221073152 588 0.099998659043 0.10001166314 58.799992461332 5.8799985013718
35	284555 23686 1034 328420 1.262216930646 59.96221073152 588 0.099998659043 0.10001166314 58.799992461332 5.8799985013718
34	308241 16106 1034 328420 1.262216930646 59.96221073152 588 1 1 588 588
33	324347 16106 1034 328420 1.262216930646 59.96221073152 588 1 1 588 588
32	340453 858 5169 328663 2 60 59 0 0 0 0
31	341311 1213 5169 328663 2 60 59 0.023296 0.02625 1.545796 0.040508328616
30	342524 858 5169 328663 2 60 59 1 1 59 59
51	343382 19019 234 328176 1.11 59.91 589 -1.4963007072852 1.4967154498574 -15.600397262872 968.87064559936
50	362401 19116 234 328176 1.11 59.91 589 -1.4778825450577 1.4526250280909 -11.962424974744 676.10348448122
49	381517 12670 234 328176 1.11 59.91 589 36.55 36.55 21527.95 786846.5725
48	394187 18472 234 328176 1.11 59.91 589 83.22663230896 2047.6504355315 628327.08025004 859966141.35101
47	412659 18494 234 328176 1.11 59.91 589 32.042074034871 35.297752802325 19677.158367239 657812.16997816
45	431153 20292 234 328176 1.11 59.91 589 -0.019406096573348 0.017598500006571 -0.08829520236349 0.067637864345398
44	451445 18509 234 328176 1.11 59.91 589 4.9754374494926 5.04588948388 2946.4470201418 14739.651570603
46	469954 10314 234 328176 1.11 59.91 589 2 2 1178 2356
58	480268 23712 1312 328707 1.302609200833 60.002603001302 588 0.099998659028 0.10001166295 58.800005460927 5.880001101425
57	503980 23715 1040 328426 1.262216960667 59.962210761469 588 0.099998659043 0.10001166314 58.79999246126 5.8799985013574
56	527695 16123 1312 328707 1.302609200833 60.002603001302 588 2 2 1176 2352
55	543818 16133 1040 328426 1.262216960667 59.962210761469 588 2 2 1176 2352
54	559951 858 5170 328664 2 60 59 0 0 0 0
53	560809 1213 5170 328664 2 60 59 0.023297 0.02625 1.545797 0.040508375209
52	562022 858 5170 328664 2 60 59 2 2 118 236
73	562880 19053 235 328177 1.11 59.91 589 -1.5144504109894 1.5154441955027 -15.649330299691 989.50885230456
72	581933 19137 235 328177 1.11 59.91 589 -1.4663368934229 1.4406330778939 -11.762315877176 664.13526000056
71	601070 12670 235 328177 1.11 59.91 589 36.55 36.55 21527.95 786846.5725
70	613740 18502 235 328177 1.11 59.91 589 74.22663230896 2038.661564431 623024.63397196 848702614.80876
69	632242 18502 235 328177 1.11 59.91 589 32.053727065472 35.285278128926 19677.276928574 657812.63827333
67	650744 20417 235 328177 1.11 59.91 589 -0.015760220733206 0.014948768234788 0.001062914878851 0.036749303208295
66	671161 18478 235 328177 1.11 59.91 589 4.9816114892615 5.0406529512611 2946.4486493063 14739.599357388
68	689639 10314 235 328177 1.11 59.91 589 3 3 1767 5301
80	699953 23698 1176 328562 1.287873050729 59.987879851409 588 0.099998659036 0.10001166287 58.800005461138 5.8800011014672
79	723651 23688 1046 328432 1.262216990687 59.96221079145 588 0.09999865904 0.100011663143 58.799992461221 5.8799985013496
78	747339 16121 1176 328562 1.287873050729 59.987879851409 588 3 3 1764 5292
77	763460 16101 1046 328432 1.262216990687 59.96221079145 588 3 3 1764 5292
76	779561 858 5171 328665 2 60 59 0 0 0 0
75	780419 1213 5171 328665 2 60 59 0.023297 0.02625 1.545797 0.040508375209
74	781632 858 5171 328665 2 60 59 3 3 177 531
95	782490 19057 236 328178 1.11 59.91 589 -1.5000260501812 1.5032357412066 -15.538942374408 968.90413621832
94	801547 19137 236 328178 1.11 59.91 589 -1.4562064120234 1.4309978796803 -11.63358221113 654.08610625205
93	820684 12670 236 328178 1.11 59.91 589 36.55 36.55 21527.95 786846.5725
92	833354 18491 236 328178 1.11 59.91 589 65.22663230896 2029.6637468479 617722.2267119 837534557.11778
91	851845 18491 236 328178 1.11 59.91 589 32.064090353333 35.27251767322 19677.303331645 657808.10122731
89	870336 20385 236 328178 1.11 59.91 589 -0.013273955718468 0.014322371938697 0.091220086868134 0.040036088397418
88	890721 18482 236 328178 1.11 59.91 589 4.9908449565489 5.0268461802697 2946.4077881174 14739.119759723
90	909203 10314 236 328178 1.11 59.91 589 4 4 2356 9424
102	919517 24262 1108 328494 1.276579020708 59.976585821461 588 0.099998659037 0.100011662875 58.800005461211 5.8800011014818
101	943779 24279 1052 328438 1.262217020708 59.962210821461 588 0.099998659037 0.100011663146 58.799992461211 5.8799985013476
100	968058 16698 1108 328494 1.276579020708 59.976585821461 588 4 4 2352 9408
99	984756 16120 1052 328438 1.262217020708 59.962210821461 588 4 4 2352 9408
98	1000876 858 5172 328666 2 60 59 0 0 0 0
97	1001734 1213 5172 328666 2 60 59 0.023297 0.02625 1.545797 0.040508375209
96	1002947 858 5172 328666 2 60 59 4 4 236 944
117	1003805 19680 237 328179 1.11 59.91 589 -1.5085423845031 1.5107019439104 -15.565027840632 984.93940190062
116	1023485 19731 237 328179 1.11 59.91 589 -1.4566506565281 1.4331843142834 -11.744067666812 658.5503727962
115	1043216 13259 237 328179 1.11 59.91 589 36.55 36.55 21527.95 786846.5725
114	1056475 19094 237 328179 1.11 59.91 589 56.226634216309 2020.6541488835 612419.95173462 826461643.43337
113	1075569 19084 237 328179 1.11 59.91 589 32.058934131222 35.27376637473 19677.203239924 657803.91970596
111	1094653 20701 237 328179 1.11 59.91 589 -0.030357794028838 0.032962840097063 0.21642754393856 0.25960843260251
110	1115354 19071 237 328179 1.11 59.91 589 4.982740672185 5.0245320404246 2946.2729754431 14737.785969617
112	1134425 10903 237 328179 1.11 59.91 589 5 5 2945 14725
124	1145328 24263 1244 328630 1.297503110771 59.997509911475 588 0.099998659035 0.100011662942 58.800005461162 5.880001101472
123	1169591 24285 1058 328444 1.262217050729 59.962210851516 588 0.099998659038 0.100011663147 58.799992461245 5.8799985013544
122	1193876 16700 1244 328630 1.297503110771 59.997509911475 588 5 5 2940 14700
121	1210576 16693 1058 328444 1.262217050729 59.962210851516 588 5 5 2940 14700
120	1227269 917 5173 328667 2 60 59 0 0 0 0
119	1228186 1272 5173 328667 2 60 59 0.023297 0.02625 1.545797 0.040508375209
118	1229458 917 5173 328667 2 60 59 5 5 295 1475
139	1230375 19637 238 328180 1.11 59.91 589 -1.4954220879336 1.4958357950385 -15.606277884383 964.67948440751
138	1250012 19740 238 328180 1.11 59.91 589 -1.460422089297 1.4358375824024 -11.644093488119 660.95189070304
137	1269752 13259 238 328180 1.11 59.91 589 36.55 36.55 21527.95 786846.5725
136	1283011 19095 238 328180 1.11 59.91 589 47.226634216309 2011.6738796638 607117.5717219 815484028.84853
135	1302106 19082 238 328180 1.11 59.91 589 32.057474375517 35.277212531421 19677.40443998 657818.84571169
133	1321188 21200 238 328180 1.11 59.91 589 -0.0098296275482426 0.01115624951931 -0.083759379914035 0.029581745564582
132	1342388 19076 238 328180 1.11 59.91 589 4.9788207220406 5.0279108584986 2946.3840367258 14738.960467553
134	1361464 10903 238 328180 1.11 59.91 589 6 6 3534 21204
146	1372367 24300 970 328350 1.247594780542 59.947601582025 588 0.099998659024 0.100011663076 58.800005461941 5.8800011016278
145	1396667 24272 1064 328450 1.26221708075 59.962210881469 588 0.09999865904 0.100011663144 58.799992461177 5.8799985013408
144	1420939 16706 970 328350 1.247594780542 59.947601582025 588 6 6 3528 21168
143	1437645 16701 1064 328450 1.26221708075 59.962210881469 588 6 6 3528 21168
142	1454346 917 5174 328668 2 60 59 0 0 0 0
141	1455263 1272 5174 328668 2 60 59 0.023297 0.02625 1.545797 0.040508375209
140	1456535 917 5174 328668 2 60 59 6 6 354 2124
161	1457452 19615 239 328181 1.11 59.91 589 -1.4854568304655 1.4867112486779 -15.47051244126 939.56930059821
160	1477067 19736 239 328181 1.11 59.91 589 -1.4553421819997 1.4302583341632 -11.556140335639 655.75898881524
159	1496803 13259 239 328181 1.11 59.91 589 36.55 36.55 21527.95 786846.5725
158	1510062 19080 239 328181 1.11 59.91 589 38.226633262634 2002.6769187782 601815.19707672 804601773.3906
157	1529142 19083 239 328181 1.11 59.91 589 32.063456921537 35.271100355773 19677.437831889 657817.7008439
155	1548225 21215 239 328181 1.11 59.91 589 -0.0093026037840573 0.0095544714910503 0.083049025649871 0.026659893027347
154	1569440 19072 239 328181 1.11 59.91 589 4.9935649617753 5.0149087721015 2946.3753130143 14738.771622015
156	1588512 10903 239 328181 1.11 59.91 589 7 7 4123 28861
168	1599415 24299 832 328218 1.212136690479 59.912130492106 588 0.099998659023 0.100011663088 58.799992462085 5.8799985015224
167	1623714 24288 1070 328456 1.26221711077 59.962210911478 588 0.099998659039 0.100011663145 58.799992461166 5.8799985013386
166	1648002 16713 832 328218 1.212136690479 59.912130492106 588 7 7 4116 28812
165	1664715 16700 1070 328456 1.26221711077 59.962210911478 588 7 7 4116 28812
164	1681415 917 5175 328669 2 60 59 0 0 0 0
163	1682332 1272 5175 328669 2 60 59 0.023297 0.02625 1.545797 0.040508375209
162	1683604 917 5175 328669 2 60 59 7 7 413 2891
