file 1684265 1501512627                                         
version 2
run SinusoidalNoAttack-25-20170731-16:49:55-69761
attr CACCSpacing 12.5
attr attackAcc -30
attr attackPos 7
attr attackSpeed 150
attr attackStart 30
attr attacker 0
attr beaconInterval 0.1
attr configname SinusoidalNoAttack
attr controller 1
attr datetime 20170731-16:49:55
attr experiment SinusoidalNoAttack
attr fakeAcc "(0 == 4)"
attr fakePos "(0 == 2)"
attr fakeSpeed "(0 == 3)"
attr inifile omnetpp_25.ini
attr iterationvars "$controller=1, $sController=\"CACC\", $CACCSpacing=12.5, $leaderSpeed=50, $attacker=0, $attackStart=30, $attackSpeed=150, $attackPos=7, $attackAcc=-30, $0=12.5, $1=0, $nCars=8, $platoonSize=8, $nLanes=1, $beaconInterval=0.1, $priority=2, $packetSize=200, $ploegH=0.5, $leaderHeadway=1.2, $fakeSpeed=(0 == 3), $fakeAcc=(0 == 4), $fakePos=(0 == 2)"
attr iterationvarsf controller=1,sController=CACC,CACCSpacing=12.5,leaderSpeed=50,attacker=0,attackStart=30,attackSpeed=150,attackPos=7,attackAcc=-30,12.5,0,nCars=8,platoonSize=8,nLanes=1,beaconInterval=0.1,priority=2,packetSize=200,ploegH=0.5,leaderHeadway=1.2,fakeSpeed=(0_==_3),fakeAcc=(0_==_4),fakePos=(0_==_2)-
attr leaderHeadway 1.2
attr leaderSpeed 50
attr measurement "$controller=1, $sController=\"CACC\", $CACCSpacing=12.5, $leaderSpeed=50, $attacker=0, $attackStart=30, $attackSpeed=150, $attackPos=7, $attackAcc=-30, $0=12.5, $1=0, $nCars=8, $platoonSize=8, $nLanes=1, $beaconInterval=0.1, $priority=2, $packetSize=200, $ploegH=0.5, $leaderHeadway=1.2, $fakeSpeed=(0 == 3), $fakeAcc=(0 == 4), $fakePos=(0 == 2)"
attr nCars 8
attr nLanes 1
attr network scenario
attr packetSize 200
attr platoonSize 8
attr ploegH 0.5
attr priority 2
attr processid 69761
attr repetition 0
attr replication #0
attr resultdir results
attr runnumber 25
attr sController "\"CACC\""
attr seedset 0
param **.coreDebug false
param **.debug false
param **.headway 0.1s
param **.numberOfCars 8
param **.numberOfCarsPerPlatoon 8
param **.numberOfLanes 1
param **.numericController 1
param **.traffic.nCars 8
param **.traffic.nLanes 1
param **.traffic.platoonInsertDistance 12.5m
param **.traffic.platoonInsertHeadway 0s
param **.traffic.platoonInsertSpeed 50kmph
param **.traffic.platoonInsertTime "1 s"
param **.traffic.platoonLeaderHeadway 1.2s
param **.traffic.platoonSize 8
param **.traffic.platooningVType "\"vtypeauto\""
param **.traffic_type "\"PlatoonsTrafficManager\""
param *.**.nic.mac1609_4.bitrate 6Mbps
param *.**.nic.mac1609_4.txPower 100mW
param *.**.nic.mac1609_4.useServiceChannel false
param *.**.nic.phy80211p.analogueModels "xmldoc(\"config.xml\")"
param *.**.nic.phy80211p.decider "xmldoc(\"config.xml\")"
param *.**.nic.phy80211p.maxTXPower 100mW
param *.**.nic.phy80211p.sensitivity -94dBm
param *.**.nic.phy80211p.thermalNoise -95dBm
param *.**.nic.phy80211p.usePropagationDelay true
param *.**.nic.phy80211p.useThermalNoise true
param *.annotations.draw false
param *.connectionManager.alpha 2.0
param *.connectionManager.carrierFrequency "5.890e9 Hz"
param *.connectionManager.pMax 100mW
param *.connectionManager.sat -94dBm
param *.connectionManager.sendDirect true
param *.manager.autoShutdown true
param *.manager.commandLine "\"sumo --remote-port $port --seed $seed --configuration-file $configFile\""
param *.manager.configFile "\"./sumocfg/freeway.sumo.cfg\""
param *.manager.host "\"localhost\""
param *.manager.margin 25
param *.manager.moduleDisplayString "\"\""
param *.manager.moduleName "\"node\""
param *.manager.moduleType "\"Car\""
param *.manager.updateInterval 0.01s
param *.node[*].appl.attackStart 30s
param *.node[*].appl.attackerType 0
param *.node[*].appl.simulationDuration "60 s"
param *.node[*].appl_type "\"SimplePlatooningApp\""
param *.node[*].helper.nCars 8
param *.node[*].helper.nLanes 1
param *.node[*].helper.platoonSize 8
param *.node[*].helper_type "\"PositionHelper\""
param *.node[*].mobility.x 0
param *.node[*].mobility.y 0
param *.node[*].mobility.z 1.895
param *.node[*].prot.attackStart 30s
param *.node[*].prot.attackerType 0
param *.node[*].prot.attackingNode 3
param *.node[*].prot.beaconingInterval 0.1s
param *.node[*].prot.fakeAcc "(0 == 4)"
param *.node[*].prot.fakePos "(0 == 2)"
param *.node[*].prot.fakeSpeed "(0 == 3)"
param *.node[*].prot.maliciousAcc "-30 mpss"
param *.node[*].prot.maliciousSpeed 150kmph
param *.node[*].prot.packetSize 200
param *.node[*].prot.priority 2
param *.node[*].prot.shiftX "7 m"
param *.node[*].prot.useControllerAcceleration true
param *.node[*].protocol_type "\"SimplePlatooningBeaconing\""
param *.node[*].scenario.accHeadway 0.1s
param *.node[*].scenario.caccC1 0.5
param *.node[*].scenario.caccOmegaN "0.2 Hz"
param *.node[*].scenario.caccSpacing 12.5m
param *.node[*].scenario.caccXi 1
param *.node[*].scenario.controller "\"CACC\""
param *.node[*].scenario.engineTau "0.5 s"
param *.node[*].scenario.leaderHeadway 1.2s
param *.node[*].scenario.leaderOscillationFrequency "0.2 Hz"
param *.node[*].scenario.leaderSpeed 50kmph
param *.node[*].scenario.oscillationAmplitude "10 kmph"
param *.node[*].scenario.ploegH 0.5s
param *.node[*].scenario.ploegKd 0.7
param *.node[*].scenario.ploegKp 0.2
param *.node[*].scenario.startOscillating "5 s"
param *.node[*].scenario.useRealisticEngine false
param *.node[*].scenario_type "\"SinusoidalScenario\""
param *.node[*].unicast.packetLossRate 0
param *.obstacles.debug false
param *.playgroundSizeX 65000m
param *.playgroundSizeY 25000m
param *.playgroundSizeZ 50m
param *.world.use2D false
param *.world.useTorus false

vector 0  scenario.node[0].appl  distance  ETV
vector 1  scenario.node[0].appl  relativeSpeed  ETV
vector 2  scenario.node[0].appl  nodeId  ETV
vector 6  scenario.node[0].appl  acceleration  ETV
vector 7  scenario.node[0].appl  controllerAcceleration  ETV
vector 3  scenario.node[0].appl  speed  ETV
vector 4  scenario.node[0].appl  posx  ETV
vector 5  scenario.node[0].appl  posy  ETV
vector 22  scenario.node[1].appl  distance  ETV
vector 23  scenario.node[1].appl  relativeSpeed  ETV
vector 24  scenario.node[1].appl  nodeId  ETV
vector 28  scenario.node[1].appl  acceleration  ETV
vector 29  scenario.node[1].appl  controllerAcceleration  ETV
vector 25  scenario.node[1].appl  speed  ETV
vector 26  scenario.node[1].appl  posx  ETV
vector 27  scenario.node[1].appl  posy  ETV
vector 44  scenario.node[2].appl  distance  ETV
vector 45  scenario.node[2].appl  relativeSpeed  ETV
vector 46  scenario.node[2].appl  nodeId  ETV
vector 50  scenario.node[2].appl  acceleration  ETV
vector 51  scenario.node[2].appl  controllerAcceleration  ETV
vector 47  scenario.node[2].appl  speed  ETV
vector 48  scenario.node[2].appl  posx  ETV
vector 49  scenario.node[2].appl  posy  ETV
vector 66  scenario.node[3].appl  distance  ETV
vector 67  scenario.node[3].appl  relativeSpeed  ETV
vector 68  scenario.node[3].appl  nodeId  ETV
vector 72  scenario.node[3].appl  acceleration  ETV
vector 73  scenario.node[3].appl  controllerAcceleration  ETV
vector 69  scenario.node[3].appl  speed  ETV
vector 70  scenario.node[3].appl  posx  ETV
vector 71  scenario.node[3].appl  posy  ETV
vector 88  scenario.node[4].appl  distance  ETV
vector 89  scenario.node[4].appl  relativeSpeed  ETV
vector 90  scenario.node[4].appl  nodeId  ETV
vector 94  scenario.node[4].appl  acceleration  ETV
vector 95  scenario.node[4].appl  controllerAcceleration  ETV
vector 91  scenario.node[4].appl  speed  ETV
vector 92  scenario.node[4].appl  posx  ETV
vector 93  scenario.node[4].appl  posy  ETV
vector 110  scenario.node[5].appl  distance  ETV
vector 111  scenario.node[5].appl  relativeSpeed  ETV
vector 112  scenario.node[5].appl  nodeId  ETV
vector 116  scenario.node[5].appl  acceleration  ETV
vector 117  scenario.node[5].appl  controllerAcceleration  ETV
vector 113  scenario.node[5].appl  speed  ETV
vector 114  scenario.node[5].appl  posx  ETV
vector 115  scenario.node[5].appl  posy  ETV
vector 132  scenario.node[6].appl  distance  ETV
vector 133  scenario.node[6].appl  relativeSpeed  ETV
vector 134  scenario.node[6].appl  nodeId  ETV
vector 138  scenario.node[6].appl  acceleration  ETV
vector 139  scenario.node[6].appl  controllerAcceleration  ETV
vector 135  scenario.node[6].appl  speed  ETV
vector 136  scenario.node[6].appl  posx  ETV
vector 137  scenario.node[6].appl  posy  ETV
vector 154  scenario.node[7].appl  distance  ETV
vector 155  scenario.node[7].appl  relativeSpeed  ETV
vector 156  scenario.node[7].appl  nodeId  ETV
vector 160  scenario.node[7].appl  acceleration  ETV
vector 161  scenario.node[7].appl  controllerAcceleration  ETV
vector 157  scenario.node[7].appl  speed  ETV
vector 158  scenario.node[7].appl  posx  ETV
vector 159  scenario.node[7].appl  posy  ETV
vector 80  scenario.node[3].prot  frontDelay  ETV
vector 78  scenario.node[3].prot  frontDelayId  ETV
vector 58  scenario.node[2].prot  frontDelay  ETV
vector 56  scenario.node[2].prot  frontDelayId  ETV
vector 168  scenario.node[7].prot  frontDelay  ETV
vector 166  scenario.node[7].prot  frontDelayId  ETV
vector 35  scenario.node[1].prot  leaderDelay  ETV
vector 33  scenario.node[1].prot  leaderDelayId  ETV
vector 36  scenario.node[1].prot  frontDelay  ETV
vector 34  scenario.node[1].prot  frontDelayId  ETV
vector 57  scenario.node[2].prot  leaderDelay  ETV
vector 55  scenario.node[2].prot  leaderDelayId  ETV
vector 79  scenario.node[3].prot  leaderDelay  ETV
vector 77  scenario.node[3].prot  leaderDelayId  ETV
vector 101  scenario.node[4].prot  leaderDelay  ETV
vector 99  scenario.node[4].prot  leaderDelayId  ETV
vector 123  scenario.node[5].prot  leaderDelay  ETV
vector 121  scenario.node[5].prot  leaderDelayId  ETV
vector 145  scenario.node[6].prot  leaderDelay  ETV
vector 143  scenario.node[6].prot  leaderDelayId  ETV
vector 167  scenario.node[7].prot  leaderDelay  ETV
vector 165  scenario.node[7].prot  leaderDelayId  ETV
vector 124  scenario.node[5].prot  frontDelay  ETV
vector 122  scenario.node[5].prot  frontDelayId  ETV
vector 102  scenario.node[4].prot  frontDelay  ETV
vector 100  scenario.node[4].prot  frontDelayId  ETV
vector 146  scenario.node[6].prot  frontDelay  ETV
vector 144  scenario.node[6].prot  frontDelayId  ETV
vector 8  scenario.node[0].prot  nodeId  ETV
vector 9  scenario.node[0].prot  busyTime  ETV
vector 10  scenario.node[0].prot  collisions  ETV
vector 30  scenario.node[1].prot  nodeId  ETV
vector 31  scenario.node[1].prot  busyTime  ETV
vector 32  scenario.node[1].prot  collisions  ETV
vector 52  scenario.node[2].prot  nodeId  ETV
vector 53  scenario.node[2].prot  busyTime  ETV
vector 54  scenario.node[2].prot  collisions  ETV
vector 74  scenario.node[3].prot  nodeId  ETV
vector 75  scenario.node[3].prot  busyTime  ETV
vector 76  scenario.node[3].prot  collisions  ETV
vector 96  scenario.node[4].prot  nodeId  ETV
vector 97  scenario.node[4].prot  busyTime  ETV
vector 98  scenario.node[4].prot  collisions  ETV
vector 118  scenario.node[5].prot  nodeId  ETV
vector 119  scenario.node[5].prot  busyTime  ETV
vector 120  scenario.node[5].prot  collisions  ETV
vector 140  scenario.node[6].prot  nodeId  ETV
vector 141  scenario.node[6].prot  busyTime  ETV
vector 142  scenario.node[6].prot  collisions  ETV
vector 162  scenario.node[7].prot  nodeId  ETV
vector 163  scenario.node[7].prot  busyTime  ETV
vector 164  scenario.node[7].prot  collisions  ETV
7	11235 13860 232 328174 1.11 59.91 589 -1.5 1.5 -14.445969899918 993.24092361736
6	25095 18587 232 328174 1.11 59.91 589 -1.472274679513 1.4513434175798 -12.507264912644 675.29835211523
5	43682 12081 232 328174 1.11 59.91 589 36.55 36.55 21527.95 786846.5725
4	55763 17900 232 328174 1.11 59.91 589 150.32875404345 971.31155254139 331142.83926911 219220786.96536
3	73663 17901 232 328174 1.11 59.91 589 12.599076970844 15.853603639796 8223.2832500118 115251.79065057
1	91564 9725 232 328174 1.11 59.91 589 0 0 0 0
0	101289 10314 232 328174 1.11 59.91 589 -1 -1 -589 589
2	111603 9725 232 328174 1.11 59.91 589 0 0 0 0
10	121328 858 5102 328596 2 60 59 0 0 0 0
9	122186 1154 5102 328596 2 60 59 0.022969 0.02625 1.545469 0.040493199961
8	123340 799 5102 328596 2 60 59 0 0 0 0
29	124139 19079 233 328175 1.11 59.91 589 -1.5129716528829 1.512964842033 -15.574772367421 998.84117655531
28	143218 19157 233 328175 1.11 59.91 589 -1.4840815552393 1.4595456976263 -12.191929144835 679.48382220743
27	162375 12670 233 328175 1.11 59.91 589 36.55 36.55 21527.95 786846.5725
26	175045 18493 233 328175 1.11 59.91 589 133.82875404358 954.88752387052 321423.23695559 208453000.05472
25	193538 18496 233 328175 1.11 59.91 589 12.594909075003 15.859715426624 8224.0551545046 115276.06074071
23	212034 20096 233 328175 1.11 59.91 589 -0.074693820605304 0.072861100851927 -0.64683184366888 1.7868716809204
22	232130 18500 233 328175 1.11 59.91 589 12.414722620005 12.61131550734 7363.6177516053 92060.853312068
24	250630 10314 233 328175 1.11 59.91 589 1 1 589 589
36	260944 23707 1032 328418 1.254912256559 59.954928916188 588 0.099908539798 0.100090542379 58.800029200694 5.8800068683531
35	284651 23707 1032 328418 1.254912256559 59.954928916188 588 0.099908539798 0.100090542379 58.800029200694 5.8800068683531
34	308358 16126 1032 328418 1.254912256559 59.954928916188 588 1 1 588 588
33	324484 16126 1032 328418 1.254912256559 59.954928916188 588 1 1 588 588
32	340610 858 5103 328597 2 60 59 0 0 0 0
31	341468 1213 5103 328597 2 60 59 0.022969 0.02625 1.545469 0.040493199961
30	342681 858 5103 328597 2 60 59 1 1 59 59
51	343539 19068 234 328176 1.11 59.91 589 -1.4952754267034 1.4970992125241 -15.647934608415 972.59613294139
50	362607 19172 234 328176 1.11 59.91 589 -1.4761121290563 1.4494360546511 -11.884630768646 672.52742401908
49	381779 12670 234 328176 1.11 59.91 589 36.55 36.55 21527.95 786846.5725
48	394449 18492 234 328176 1.11 59.91 589 117.32875404358 938.42612809554 311704.0985237 198006293.29437
47	412941 18508 234 328176 1.11 59.91 589 12.600718385035 15.854453942917 8224.4525404548 115282.28759135
45	431449 20143 234 328176 1.11 59.91 589 -0.042592453618216 0.039108605105298 -0.27546665876415 0.42119240111185
44	451592 18481 234 328176 1.11 59.91 589 12.449055378014 12.573511343896 7363.1463796066 92047.963683561
46	470073 10314 234 328176 1.11 59.91 589 2 2 1178 2356
58	480387 23691 900 328286 1.229658651141 59.929662311415 588 0.099999539631 0.100012543216 58.800003201339 5.88000064369
57	504078 23715 1038 328424 1.254912311597 59.954928971094 588 0.099908539806 0.100090542395 58.800029200562 5.8800068683267
56	527793 16111 900 328286 1.229658651141 59.929662311415 588 2 2 1176 2352
55	543904 16127 1038 328424 1.254912311597 59.954928971094 588 2 2 1176 2352
54	560031 858 5104 328598 2 60 59 0 0 0 0
53	560889 1213 5104 328598 2 60 59 0.022969 0.02625 1.545469 0.040493199961
52	562102 858 5104 328598 2 60 59 2 2 118 236
73	562960 19060 235 328177 1.11 59.91 589 -1.4890877726286 1.4891492922908 -15.532070740095 946.51738132574
72	582020 19181 235 328177 1.11 59.91 589 -1.4634887733029 1.4362599129383 -11.632978470984 660.25457671667
71	601201 12670 235 328177 1.11 59.91 589 36.55 36.55 21527.95 786846.5725
70	613871 18491 235 328177 1.11 59.91 589 100.82875404358 921.94261667202 301984.98431851 187880412.36375
69	632362 18486 235 328177 1.11 59.91 589 12.613692769581 15.841159355063 8224.6264349607 115279.30818144
67	650848 20331 235 328177 1.11 59.91 589 -0.022067713649799 0.020412768889186 -0.055048198281206 0.076637647201891
66	671179 18454 235 328177 1.11 59.91 589 12.470444737773 12.549361181902 7363.1176830792 92046.878760366
68	689633 10314 235 328177 1.11 59.91 589 3 3 1767 5301
80	699947 23692 832 328218 1.213905596103 59.913896256581 588 0.099999539623 0.100012542344 58.799990201543 5.8799980435738
79	723639 23678 1044 328430 1.254912366635 59.954929026073 588 0.099908539808 0.100090542404 58.800029200503 5.8800068683149
78	747317 16116 832 328218 1.213905596103 59.913896256581 588 3 3 1764 5292
77	763433 16094 1044 328430 1.254912366635 59.954929026073 588 3 3 1764 5292
76	779527 858 5105 328599 2 60 59 0 0 0 0
75	780385 1213 5105 328599 2 60 59 0.022968 0.02625 1.545468 0.040493154024
74	781598 858 5105 328599 2 60 59 3 3 177 531
95	782456 19039 236 328178 1.11 59.91 589 -1.4821537219925 1.4817994872658 -15.381548876574 924.84923286839
94	801495 19165 236 328178 1.11 59.91 589 -1.4527428031657 1.4262347656407 -11.500711128413 650.31121765363
93	820660 12670 236 328178 1.11 59.91 589 36.55 36.55 21527.95 786846.5725
92	833330 18512 236 328178 1.11 59.91 589 84.328754043579 905.44456896982 292265.92793103 178075335.76768
91	851842 18479 236 328178 1.11 59.91 589 12.624076830247 15.827997541468 8224.6505584011 115273.71112168
89	870321 20408 236 328178 1.11 59.91 589 -0.013533739217072 0.014563172885763 0.092206344315406 0.041070887602568
88	890729 18467 236 328178 1.11 59.91 589 12.487206714342 12.526830100023 7363.0568699583 92045.214431275
90	909196 10314 236 328178 1.11 59.91 589 4 4 2356 9424
102	919510 24301 1246 328641 1.303562861978 60.00355352139 588 0.099999539637 0.100012542534 58.799990200477 5.8799980433606
101	943811 24299 1050 328436 1.254912421673 59.954929081103 588 0.099908539806 0.100090542407 58.800029200495 5.8800068683133
100	968110 16716 1246 328641 1.303562861978 60.00355352139 588 4 4 2352 9408
99	984826 16116 1050 328436 1.254912421673 59.954929081103 588 4 4 2352 9408
98	1000942 858 5106 328600 2 60 59 0 0 0 0
97	1001800 1213 5106 328600 2 60 59 0.022969 0.02625 1.545469 0.040493199961
96	1003013 858 5106 328600 2 60 59 4 4 236 944
117	1003871 19672 237 328179 1.11 59.91 589 -1.4896672550429 1.4914667368177 -15.421957699515 951.12785097305
116	1023543 19763 237 328179 1.11 59.91 589 -1.4475618992762 1.4231777662634 -11.596289163944 646.04311455908
115	1043306 13259 237 328179 1.11 59.91 589 36.55 36.55 21527.95 786846.5725
114	1056565 19090 237 328179 1.11 59.91 589 67.828754043579 888.92469673284 282546.97787601 168590975.64623
113	1075655 19087 237 328179 1.11 59.91 589 12.626712607814 15.819724907977 8224.4483815855 115265.52815724
111	1094742 20690 237 328179 1.11 59.91 589 -0.038476734218614 0.039951929300271 0.31718392688681 0.46072422410391
110	1115432 19061 237 328179 1.11 59.91 589 12.476540120179 12.534684262357 7362.9460114743 92042.530045548
112	1134493 10903 237 328179 1.11 59.91 589 5 5 2945 14725
124	1145396 24250 1172 328558 1.26574880694 59.965752466439 588 0.09999953964 0.100012543499 58.800003200564 5.8800006435351
123	1169646 24285 1056 328442 1.254912476711 59.954929136209 588 0.099908539801 0.1000905424 58.800029200563 5.8800068683269
122	1193931 16678 1172 328558 1.26574880694 59.965752466439 588 5 5 2940 14700
121	1210609 16702 1056 328442 1.254912476711 59.954929136209 588 5 5 2940 14700
120	1227311 917 5107 328601 2 60 59 0 0 0 0
119	1228228 1272 5107 328601 2 60 59 0.022968 0.02625 1.545468 0.040493154024
118	1229500 917 5107 328601 2 60 59 5 5 295 1475
139	1230417 19635 238 328180 1.11 59.91 589 -1.4807582963704 1.4812783367737 -15.370185191307 931.11554497757
138	1250052 19731 238 328180 1.11 59.91 589 -1.45037392255 1.4266963776222 -11.664156671952 652.67979833617
137	1269783 13259 238 328180 1.11 59.91 589 36.55 36.55 21527.95 786846.5725
136	1283042 19085 238 328180 1.11 59.91 589 51.32875213623 872.42520587958 272828.01751361 159427282.84105
135	1302127 19084 238 328180 1.11 59.91 589 12.620073935976 15.824878149272 8224.4509586516 115269.34507636
133	1321211 20852 238 328180 1.11 59.91 589 -0.019933735025285 0.022609925515825 0.11338582556053 0.099331149592158
132	1342063 19081 238 328180 1.11 59.91 589 12.492260077556 12.514292349472 7362.9604139447 92042.775436033
134	1361144 10903 238 328180 1.11 59.91 589 6 6 3534 21204
146	1372047 24298 1312 328701 1.305158972054 60.005162631536 588 0.099999539634 0.100012543433 58.800003200547 5.8800006435317
145	1396345 24293 1062 328448 1.254912531749 59.954929191246 588 0.099908539802 0.100090542399 58.800029200562 5.8800068683267
144	1420638 16717 1312 328701 1.305158972054 60.005162631536 588 6 6 3528 21168
143	1437355 16717 1062 328448 1.254912531749 59.954929191246 588 6 6 3528 21168
142	1454072 917 5108 328602 2 60 59 0 0 0 0
141	1454989 1272 5108 328602 2 60 59 0.022969 0.02625 1.545469 0.040493199961
140	1456261 917 5108 328602 2 60 59 6 6 354 2124
161	1457178 19638 239 328181 1.11 59.91 589 -1.4938774163822 1.4938088492534 -15.603273281816 962.34114271392
160	1476816 19765 239 328181 1.11 59.91 589 -1.4564665713065 1.431473987758 -11.585972637045 656.36407294157
159	1496581 13259 239 328181 1.11 59.91 589 36.55 36.55 21527.95 786846.5725
158	1509840 19079 239 328181 1.11 59.91 589 34.82875213623 855.94469284023 263108.96867181 150584258.16634
157	1528919 19090 239 328181 1.11 59.91 589 12.617260044291 15.830302347944 8224.6490428033 115277.31436808
155	1548009 21185 239 328181 1.11 59.91 589 -0.0095325883865343 0.011006381567279 -0.08144258495213 0.02450289590086
154	1569194 19065 239 328181 1.11 59.91 589 12.478394466582 12.525696339886 7363.0528034878 92045.1763186
156	1588259 10903 239 328181 1.11 59.91 589 7 7 4123 28861
168	1599162 24297 975 328355 1.254433926331 59.954437586542 588 0.099999539628 0.100012542812 58.800003201276 5.8800006436774
167	1623459 24279 1068 328454 1.254912586788 59.954929246218 588 0.099908539807 0.100090542406 58.800029200495 5.8800068683133
166	1647738 16710 975 328355 1.254433926331 59.954437586542 588 7 7 4116 28812
165	1664448 16711 1068 328454 1.254912586788 59.954929246218 588 7 7 4116 28812
164	1681159 917 5109 328603 2 60 59 0 0 0 0
163	1682076 1272 5109 328603 2 60 59 0.022969 0.02625 1.545469 0.040493199961
162	1683348 917 5109 328603 2 60 59 7 7 413 2891
