file 1681563 1501513109                                         
version 2
run SinusoidalNoAttack-59-20170731-16:57:58-41059
attr CACCSpacing 20
attr attackAcc -30
attr attackPos 7
attr attackSpeed 150
attr attackStart 30
attr attacker 0
attr beaconInterval 0.1
attr configname SinusoidalNoAttack
attr controller 1
attr datetime 20170731-16:57:58
attr experiment SinusoidalNoAttack
attr fakeAcc "(0 == 4)"
attr fakePos "(0 == 2)"
attr fakeSpeed "(0 == 3)"
attr inifile omnetpp_59.ini
attr iterationvars "$controller=1, $sController=\"CACC\", $CACCSpacing=20, $leaderSpeed=80, $attacker=0, $attackStart=30, $attackSpeed=150, $attackPos=7, $attackAcc=-30, $0=20, $1=0, $nCars=8, $platoonSize=8, $nLanes=1, $beaconInterval=0.1, $priority=2, $packetSize=200, $ploegH=0.5, $leaderHeadway=1.2, $fakeSpeed=(0 == 3), $fakeAcc=(0 == 4), $fakePos=(0 == 2)"
attr iterationvarsf controller=1,sController=CACC,CACCSpacing=20,leaderSpeed=80,attacker=0,attackStart=30,attackSpeed=150,attackPos=7,attackAcc=-30,20,0,nCars=8,platoonSize=8,nLanes=1,beaconInterval=0.1,priority=2,packetSize=200,ploegH=0.5,leaderHeadway=1.2,fakeSpeed=(0_==_3),fakeAcc=(0_==_4),fakePos=(0_==_2)-
attr leaderHeadway 1.2
attr leaderSpeed 80
attr measurement "$controller=1, $sController=\"CACC\", $CACCSpacing=20, $leaderSpeed=80, $attacker=0, $attackStart=30, $attackSpeed=150, $attackPos=7, $attackAcc=-30, $0=20, $1=0, $nCars=8, $platoonSize=8, $nLanes=1, $beaconInterval=0.1, $priority=2, $packetSize=200, $ploegH=0.5, $leaderHeadway=1.2, $fakeSpeed=(0 == 3), $fakeAcc=(0 == 4), $fakePos=(0 == 2)"
attr nCars 8
attr nLanes 1
attr network scenario
attr packetSize 200
attr platoonSize 8
attr ploegH 0.5
attr priority 2
attr processid 41059
attr repetition 4
attr replication #4
attr resultdir results
attr runnumber 59
attr sController "\"CACC\""
attr seedset 4
param **.coreDebug false
param **.debug false
param **.headway 0.1s
param **.numberOfCars 8
param **.numberOfCarsPerPlatoon 8
param **.numberOfLanes 1
param **.numericController 1
param **.traffic.nCars 8
param **.traffic.nLanes 1
param **.traffic.platoonInsertDistance 20m
param **.traffic.platoonInsertHeadway 0s
param **.traffic.platoonInsertSpeed 80kmph
param **.traffic.platoonInsertTime "1 s"
param **.traffic.platoonLeaderHeadway 1.2s
param **.traffic.platoonSize 8
param **.traffic.platooningVType "\"vtypeauto\""
param **.traffic_type "\"PlatoonsTrafficManager\""
param *.**.nic.mac1609_4.bitrate 6Mbps
param *.**.nic.mac1609_4.txPower 100mW
param *.**.nic.mac1609_4.useServiceChannel false
param *.**.nic.phy80211p.analogueModels "xmldoc(\"config.xml\")"
param *.**.nic.phy80211p.decider "xmldoc(\"config.xml\")"
param *.**.nic.phy80211p.maxTXPower 100mW
param *.**.nic.phy80211p.sensitivity -94dBm
param *.**.nic.phy80211p.thermalNoise -95dBm
param *.**.nic.phy80211p.usePropagationDelay true
param *.**.nic.phy80211p.useThermalNoise true
param *.annotations.draw false
param *.connectionManager.alpha 2.0
param *.connectionManager.carrierFrequency "5.890e9 Hz"
param *.connectionManager.pMax 100mW
param *.connectionManager.sat -94dBm
param *.connectionManager.sendDirect true
param *.manager.autoShutdown true
param *.manager.commandLine "\"sumo --remote-port $port --seed $seed --configuration-file $configFile\""
param *.manager.configFile "\"./sumocfg/freeway.sumo.cfg\""
param *.manager.host "\"localhost\""
param *.manager.margin 25
param *.manager.moduleDisplayString "\"\""
param *.manager.moduleName "\"node\""
param *.manager.moduleType "\"Car\""
param *.manager.updateInterval 0.01s
param *.node[*].appl.attackStart 30s
param *.node[*].appl.attackerType 0
param *.node[*].appl.simulationDuration "60 s"
param *.node[*].appl_type "\"SimplePlatooningApp\""
param *.node[*].helper.nCars 8
param *.node[*].helper.nLanes 1
param *.node[*].helper.platoonSize 8
param *.node[*].helper_type "\"PositionHelper\""
param *.node[*].mobility.x 0
param *.node[*].mobility.y 0
param *.node[*].mobility.z 1.895
param *.node[*].prot.attackStart 30s
param *.node[*].prot.attackerType 0
param *.node[*].prot.attackingNode 3
param *.node[*].prot.beaconingInterval 0.1s
param *.node[*].prot.fakeAcc "(0 == 4)"
param *.node[*].prot.fakePos "(0 == 2)"
param *.node[*].prot.fakeSpeed "(0 == 3)"
param *.node[*].prot.maliciousAcc "-30 mpss"
param *.node[*].prot.maliciousSpeed 150kmph
param *.node[*].prot.packetSize 200
param *.node[*].prot.priority 2
param *.node[*].prot.shiftX "7 m"
param *.node[*].prot.useControllerAcceleration true
param *.node[*].protocol_type "\"SimplePlatooningBeaconing\""
param *.node[*].scenario.accHeadway 0.1s
param *.node[*].scenario.caccC1 0.5
param *.node[*].scenario.caccOmegaN "0.2 Hz"
param *.node[*].scenario.caccSpacing 20m
param *.node[*].scenario.caccXi 1
param *.node[*].scenario.controller "\"CACC\""
param *.node[*].scenario.engineTau "0.5 s"
param *.node[*].scenario.leaderHeadway 1.2s
param *.node[*].scenario.leaderOscillationFrequency "0.2 Hz"
param *.node[*].scenario.leaderSpeed 80kmph
param *.node[*].scenario.oscillationAmplitude "10 kmph"
param *.node[*].scenario.ploegH 0.5s
param *.node[*].scenario.ploegKd 0.7
param *.node[*].scenario.ploegKp 0.2
param *.node[*].scenario.startOscillating "5 s"
param *.node[*].scenario.useRealisticEngine false
param *.node[*].scenario_type "\"SinusoidalScenario\""
param *.node[*].unicast.packetLossRate 0
param *.obstacles.debug false
param *.playgroundSizeX 65000m
param *.playgroundSizeY 25000m
param *.playgroundSizeZ 50m
param *.world.use2D false
param *.world.useTorus false

vector 0  scenario.node[0].appl  distance  ETV
vector 1  scenario.node[0].appl  relativeSpeed  ETV
vector 2  scenario.node[0].appl  nodeId  ETV
vector 6  scenario.node[0].appl  acceleration  ETV
vector 7  scenario.node[0].appl  controllerAcceleration  ETV
vector 3  scenario.node[0].appl  speed  ETV
vector 4  scenario.node[0].appl  posx  ETV
vector 5  scenario.node[0].appl  posy  ETV
vector 22  scenario.node[1].appl  distance  ETV
vector 23  scenario.node[1].appl  relativeSpeed  ETV
vector 24  scenario.node[1].appl  nodeId  ETV
vector 28  scenario.node[1].appl  acceleration  ETV
vector 29  scenario.node[1].appl  controllerAcceleration  ETV
vector 25  scenario.node[1].appl  speed  ETV
vector 26  scenario.node[1].appl  posx  ETV
vector 27  scenario.node[1].appl  posy  ETV
vector 44  scenario.node[2].appl  distance  ETV
vector 45  scenario.node[2].appl  relativeSpeed  ETV
vector 46  scenario.node[2].appl  nodeId  ETV
vector 50  scenario.node[2].appl  acceleration  ETV
vector 51  scenario.node[2].appl  controllerAcceleration  ETV
vector 47  scenario.node[2].appl  speed  ETV
vector 48  scenario.node[2].appl  posx  ETV
vector 49  scenario.node[2].appl  posy  ETV
vector 66  scenario.node[3].appl  distance  ETV
vector 67  scenario.node[3].appl  relativeSpeed  ETV
vector 68  scenario.node[3].appl  nodeId  ETV
vector 72  scenario.node[3].appl  acceleration  ETV
vector 73  scenario.node[3].appl  controllerAcceleration  ETV
vector 69  scenario.node[3].appl  speed  ETV
vector 70  scenario.node[3].appl  posx  ETV
vector 71  scenario.node[3].appl  posy  ETV
vector 88  scenario.node[4].appl  distance  ETV
vector 89  scenario.node[4].appl  relativeSpeed  ETV
vector 90  scenario.node[4].appl  nodeId  ETV
vector 94  scenario.node[4].appl  acceleration  ETV
vector 95  scenario.node[4].appl  controllerAcceleration  ETV
vector 91  scenario.node[4].appl  speed  ETV
vector 92  scenario.node[4].appl  posx  ETV
vector 93  scenario.node[4].appl  posy  ETV
vector 110  scenario.node[5].appl  distance  ETV
vector 111  scenario.node[5].appl  relativeSpeed  ETV
vector 112  scenario.node[5].appl  nodeId  ETV
vector 116  scenario.node[5].appl  acceleration  ETV
vector 117  scenario.node[5].appl  controllerAcceleration  ETV
vector 113  scenario.node[5].appl  speed  ETV
vector 114  scenario.node[5].appl  posx  ETV
vector 115  scenario.node[5].appl  posy  ETV
vector 132  scenario.node[6].appl  distance  ETV
vector 133  scenario.node[6].appl  relativeSpeed  ETV
vector 134  scenario.node[6].appl  nodeId  ETV
vector 138  scenario.node[6].appl  acceleration  ETV
vector 139  scenario.node[6].appl  controllerAcceleration  ETV
vector 135  scenario.node[6].appl  speed  ETV
vector 136  scenario.node[6].appl  posx  ETV
vector 137  scenario.node[6].appl  posy  ETV
vector 154  scenario.node[7].appl  distance  ETV
vector 155  scenario.node[7].appl  relativeSpeed  ETV
vector 156  scenario.node[7].appl  nodeId  ETV
vector 160  scenario.node[7].appl  acceleration  ETV
vector 161  scenario.node[7].appl  controllerAcceleration  ETV
vector 157  scenario.node[7].appl  speed  ETV
vector 158  scenario.node[7].appl  posx  ETV
vector 159  scenario.node[7].appl  posy  ETV
vector 102  scenario.node[4].prot  frontDelay  ETV
vector 100  scenario.node[4].prot  frontDelayId  ETV
vector 35  scenario.node[1].prot  leaderDelay  ETV
vector 33  scenario.node[1].prot  leaderDelayId  ETV
vector 36  scenario.node[1].prot  frontDelay  ETV
vector 34  scenario.node[1].prot  frontDelayId  ETV
vector 57  scenario.node[2].prot  leaderDelay  ETV
vector 55  scenario.node[2].prot  leaderDelayId  ETV
vector 79  scenario.node[3].prot  leaderDelay  ETV
vector 77  scenario.node[3].prot  leaderDelayId  ETV
vector 101  scenario.node[4].prot  leaderDelay  ETV
vector 99  scenario.node[4].prot  leaderDelayId  ETV
vector 123  scenario.node[5].prot  leaderDelay  ETV
vector 121  scenario.node[5].prot  leaderDelayId  ETV
vector 145  scenario.node[6].prot  leaderDelay  ETV
vector 143  scenario.node[6].prot  leaderDelayId  ETV
vector 167  scenario.node[7].prot  leaderDelay  ETV
vector 165  scenario.node[7].prot  leaderDelayId  ETV
vector 80  scenario.node[3].prot  frontDelay  ETV
vector 78  scenario.node[3].prot  frontDelayId  ETV
vector 146  scenario.node[6].prot  frontDelay  ETV
vector 144  scenario.node[6].prot  frontDelayId  ETV
vector 58  scenario.node[2].prot  frontDelay  ETV
vector 56  scenario.node[2].prot  frontDelayId  ETV
vector 124  scenario.node[5].prot  frontDelay  ETV
vector 122  scenario.node[5].prot  frontDelayId  ETV
vector 168  scenario.node[7].prot  frontDelay  ETV
vector 166  scenario.node[7].prot  frontDelayId  ETV
vector 8  scenario.node[0].prot  nodeId  ETV
vector 9  scenario.node[0].prot  busyTime  ETV
vector 10  scenario.node[0].prot  collisions  ETV
vector 30  scenario.node[1].prot  nodeId  ETV
vector 31  scenario.node[1].prot  busyTime  ETV
vector 32  scenario.node[1].prot  collisions  ETV
vector 52  scenario.node[2].prot  nodeId  ETV
vector 53  scenario.node[2].prot  busyTime  ETV
vector 54  scenario.node[2].prot  collisions  ETV
vector 74  scenario.node[3].prot  nodeId  ETV
vector 75  scenario.node[3].prot  busyTime  ETV
vector 76  scenario.node[3].prot  collisions  ETV
vector 96  scenario.node[4].prot  nodeId  ETV
vector 97  scenario.node[4].prot  busyTime  ETV
vector 98  scenario.node[4].prot  collisions  ETV
vector 118  scenario.node[5].prot  nodeId  ETV
vector 119  scenario.node[5].prot  busyTime  ETV
vector 120  scenario.node[5].prot  collisions  ETV
vector 140  scenario.node[6].prot  nodeId  ETV
vector 141  scenario.node[6].prot  busyTime  ETV
vector 142  scenario.node[6].prot  collisions  ETV
vector 162  scenario.node[7].prot  nodeId  ETV
vector 163  scenario.node[7].prot  busyTime  ETV
vector 164  scenario.node[7].prot  collisions  ETV
7	11217 13855 232 328174 1.11 59.91 589 -1.5 1.5 -14.445957496355 993.24092342393
6	25072 18568 232 328174 1.11 59.91 589 -1.4722746795719 1.4513434175793 -12.507252200722 675.29835178084
5	43640 12081 232 328174 1.11 59.91 589 36.55 36.55 21527.95 786846.5725
4	55721 17900 232 328174 1.11 59.91 589 216.49741439846 1527.4802117629 514421.17955556 533695476.20724
3	73621 17918 232 328174 1.11 59.91 589 20.932410304178 24.18693697487 13131.616571188 293209.28872176
1	91539 9725 232 328174 1.11 59.91 589 0 0 0 0
0	101264 10314 232 328174 1.11 59.91 589 -1 -1 -589 589
2	111578 9725 232 328174 1.11 59.91 589 0 0 0 0
10	121303 859 5234 328728 2 60 59 0 0 0 0
9	122162 1155 5234 328728 2 60 59 0.023625 0.02625 1.546125 0.040523765625
8	123317 800 5234 328728 2 60 59 0 0 0 0
29	124117 17847 233 328175 1.11 59.91 589 -1.5022740551845 1.5017240980364 -14.809031322615 987.5035167484
28	141964 19147 233 328175 1.11 59.91 589 -1.4793271039991 1.4491063989684 -12.221328447915 673.78414314945
27	161111 12670 233 328175 1.11 59.91 589 36.55 36.55 21527.95 786846.5725
26	173781 18495 233 328175 1.11 59.91 589 192.49741439819 1503.4858446048 500267.58540079 509305003.55726
25	192276 18493 233 328175 1.11 59.91 589 20.932157897619 24.188490887322 13131.68396217 293211.42937794
23	210769 20077 233 328175 1.11 59.91 589 -0.062041806553061 0.063261405394254 0.057681539226522 1.2031950606458
22	230846 18505 233 328175 1.11 59.91 589 19.934067185849 20.123785057277 11797.595502589 236305.71977906
24	249351 10314 233 328175 1.11 59.91 589 1 1 589 589
36	259665 23706 964 328350 1.241824401662 59.941827306044 588 0.099999759794 0.100012762319 58.800002665601 5.8800005349444
35	283371 23706 964 328350 1.241824401662 59.941827306044 588 0.099999759794 0.100012762319 58.800002665601 5.8800005349444
34	307077 16123 964 328350 1.241824401662 59.941827306044 588 1 1 588 588
33	323200 16123 964 328350 1.241824401662 59.941827306044 588 1 1 588 588
32	339323 859 5235 328729 2 60 59 0 0 0 0
31	340182 1214 5235 328729 2 60 59 0.023625 0.02625 1.546125 0.040523765625
30	341396 859 5235 328729 2 60 59 1 1 59 59
51	342255 18189 234 328176 1.11 59.91 589 -1.515739455174 1.5126010656806 -15.948754801876 995.29303487444
50	360444 19142 234 328176 1.11 59.91 589 -1.4731702605062 1.4434762613256 -12.051125934471 669.67352616862
49	379586 12670 234 328176 1.11 59.91 589 36.55 36.55 21527.95 786846.5725
48	392256 18487 234 328176 1.11 59.91 589 168.49741439819 1479.4861321559 486126.59008166 485620721.44563
47	410743 18489 234 328176 1.11 59.91 589 20.933984312915 24.181800330205 13131.693475246 293208.97830908
45	429232 20292 234 328176 1.11 59.91 589 -0.017729428736267 0.015851877940623 0.11270020893594 0.060652355604209
44	449524 18461 234 328176 1.11 59.91 589 19.9728231971 20.044744098424 11784.995509393 235800.05828507
46	467985 10314 234 328176 1.11 59.91 589 2 2 1178 2356
58	478299 23690 1176 328562 1.281934122161 59.98193702626 588 0.099999759788 0.10001276258 58.800002665318 5.8800005348878
57	501989 23672 970 328356 1.241824481718 59.941827386097 588 0.099999759794 0.100012762315 58.800002665598 5.8800005349439
56	525661 16111 1176 328562 1.281934122161 59.98193702626 588 2 2 1176 2352
55	541772 16098 970 328356 1.241824481718 59.941827386097 588 2 2 1176 2352
54	557870 859 5236 328730 2 60 59 0 0 0 0
53	558729 1214 5236 328730 2 60 59 0.023625 0.02625 1.546125 0.040523765625
52	559943 859 5236 328730 2 60 59 2 2 118 236
73	560802 19059 235 328177 1.11 59.91 589 -1.4979584792032 1.4963276403 -15.539905659805 974.15226009527
72	579861 19164 235 328177 1.11 59.91 589 -1.4632764806819 1.435784319434 -11.868116931357 660.49499346137
71	599025 12670 235 328177 1.11 59.91 589 36.55 36.55 21527.95 786846.5725
70	611695 18495 235 328177 1.11 59.91 589 144.49742202759 1455.5070258989 471993.91522227 462632867.35943
69	630190 18511 235 328177 1.11 59.91 589 20.942880641148 24.173661689242 13131.908600131 293212.77860681
67	648701 20495 235 328177 1.11 59.91 589 -0.015485116047433 0.011538821970891 -0.094613625835926 0.026680492197302
66	669196 18488 235 328177 1.11 59.91 589 19.970461361222 20.035617534908 11776.679161888 235467.30201976
68	687684 10314 235 328177 1.11 59.91 589 3 3 1767 5301
80	697998 23686 1040 328420 1.262751561773 59.96275446608 588 0.099999759792 0.100012763184 58.800002665526 5.8800005349294
79	721684 23698 976 328362 1.241824561773 59.941827466081 588 0.099999759793 0.100012762315 58.800002665527 5.8800005349297
78	745382 16099 1040 328420 1.262751561773 59.96275446608 588 3 3 1764 5292
77	761481 16121 976 328362 1.241824561773 59.941827466081 588 3 3 1764 5292
76	777602 859 5237 328731 2 60 59 0 0 0 0
75	778461 1214 5237 328731 2 60 59 0.023625 0.02625 1.546125 0.040523765625
74	779675 859 5237 328731 2 60 59 3 3 177 531
95	780534 19043 236 328178 1.11 59.91 589 -1.4916742906689 1.4916957735754 -15.550082030233 958.92313330395
94	799577 19164 236 328178 1.11 59.91 589 -1.4604041283889 1.4323587525855 -11.636482973515 657.36405748538
93	818741 12670 236 328178 1.11 59.91 589 36.55 36.55 21527.95 786846.5725
92	831411 18500 236 328178 1.11 59.91 589 120.49742202759 1431.537091637 457858.74280444 440318577.12133
91	849911 18500 236 328178 1.11 59.91 589 20.947171130015 24.171663219826 13132.217788472 293224.46454529
89	868411 20186 236 328178 1.11 59.91 589 -0.026047776769083 0.025125777971223 -0.19050717197174 0.19626740210729
88	888597 18475 236 328178 1.11 59.91 589 19.957670224827 20.053884512255 11779.178601594 235567.47836329
90	907072 10314 236 328178 1.11 59.91 589 4 4 2356 9424
102	917386 24277 904 328284 1.240527161496 59.940530065894 588 0.09999975978 0.100012763147 58.800002665617 5.8800005349476
101	941663 24296 982 328368 1.241824641829 59.941827546034 588 0.099999759794 0.100012762309 58.800002665424 5.8800005349091
100	965959 16697 904 328284 1.240527161496 59.940530065894 588 4 4 2352 9408
99	982656 16118 982 328368 1.241824641829 59.941827546034 588 4 4 2352 9408
98	998774 859 5238 328732 2 60 59 0 0 0 0
97	999633 1214 5238 328732 2 60 59 0.023625 0.02625 1.546125 0.040523765625
96	1000847 859 5238 328732 2 60 59 4 4 236 944
117	1001706 19645 237 328179 1.11 59.91 589 -1.4978823344754 1.4979373791555 -15.573895090097 972.57495841734
116	1021351 19743 237 328179 1.11 59.91 589 -1.4541166571249 1.4282739870932 -11.70183492588 653.54421009521
115	1041094 13259 237 328179 1.11 59.91 589 36.55 36.55 21527.95 786846.5725
114	1054353 19076 237 328179 1.11 59.91 589 96.497422027588 1407.5252046685 443725.37187844 418685555.01906
113	1073429 19087 237 328179 1.11 59.91 589 20.950115860055 24.165499702454 13132.096385079 293216.64389278
111	1092516 20702 237 328179 1.11 59.91 589 -0.033954329079403 0.034107726963704 0.23776822346053 0.36339076513237
110	1113218 19074 237 328179 1.11 59.91 589 19.974351260928 20.024425985267 11777.368497934 235494.83819855
112	1132292 10903 237 328179 1.11 59.91 589 5 5 2945 14725
124	1143195 24295 1242 328628 1.287391362327 59.987394266288 588 0.099999759784 0.100012762958 58.80000266518 5.8800005348602
123	1167490 24279 988 328374 1.241824721884 59.94182762613 588 0.099999759791 0.100012762314 58.800002665465 5.8800005349173
122	1191769 16707 1242 328628 1.287391362327 59.987394266288 588 5 5 2940 14700
121	1208476 16704 988 328374 1.241824721884 59.94182762613 588 5 5 2940 14700
120	1225180 918 5239 328733 2 60 59 0 0 0 0
119	1226098 1273 5239 328733 2 60 59 0.023625 0.02625 1.546125 0.040523765625
118	1227371 918 5239 328733 2 60 59 5 5 295 1475
139	1228289 19665 238 328180 1.11 59.91 589 -1.4890055486706 1.4891293151355 -15.450957951511 953.17509026602
138	1247954 19744 238 328180 1.11 59.91 589 -1.4486611735869 1.4235063624849 -11.665339564064 647.39786171193
137	1267698 13259 238 328180 1.11 59.91 589 36.55 36.55 21527.95 786846.5725
136	1280957 19067 238 328180 1.11 59.91 589 72.497422027588 1383.5239149689 429591.217735 397729853.81312
135	1300024 19088 238 328180 1.11 59.91 589 20.956389023814 24.157414904504 13132.084734046 293212.36665163
133	1319112 20782 238 328180 1.11 59.91 589 -0.018947290032674 0.01889423140539 0.12866938166071 0.10812242307968
132	1339894 19070 238 328180 1.11 59.91 589 19.987269584945 20.013796623509 11778.153910415 235526.18163387
134	1358964 10903 238 328180 1.11 59.91 589 6 6 3534 21204
146	1369867 24290 1106 328486 1.266713801939 59.966716706186 588 0.099999759788 0.100012762268 58.800002665466 5.8800005349175
145	1394157 24283 994 328380 1.241824801939 59.941827706189 588 0.099999759788 0.100012762316 58.800002665469 5.8800005349181
144	1418440 16705 1106 328486 1.266713801939 59.966716706186 588 6 6 3528 21168
143	1435145 16695 994 328380 1.241824801939 59.941827706189 588 6 6 3528 21168
142	1451840 918 5240 328734 2 60 59 0 0 0 0
141	1452758 1273 5240 328734 2 60 59 0.023625 0.02625 1.546125 0.040523765625
140	1454031 918 5240 328734 2 60 59 6 6 354 2124
161	1454949 19652 239 328181 1.11 59.91 589 -1.496354506742 1.4965424279723 -15.503002812195 972.37101269231
160	1474601 19736 239 328181 1.11 59.91 589 -1.4519455676979 1.428140861044 -11.799922619402 653.88203413961
159	1494337 13259 239 328181 1.11 59.91 589 36.55 36.55 21527.95 786846.5725
158	1507596 19076 239 328181 1.11 59.91 589 48.497422027588 1359.5180887543 415457.05332002 377452311.90694
157	1526672 19084 239 328181 1.11 59.91 589 20.949497809895 24.16197464608 13132.021560119 293213.43174839
155	1545756 20728 239 328181 1.11 59.91 589 -0.031834544338921 0.034197080996051 0.17982732306004 0.27842529157404
154	1566484 19077 239 328181 1.11 59.91 589 19.977402940803 20.020493175722 11778.163151507 235526.59236204
156	1585561 10903 239 328181 1.11 59.91 589 7 7 4123 28861
168	1596464 24301 1308 328694 1.289468522438 59.989471426424 588 0.099999759782 0.100012762609 58.800002665205 5.8800005348652
167	1620765 24283 1000 328386 1.241824881995 59.941827786265 588 0.099999759789 0.100012762317 58.800002665489 5.8800005349221
166	1645048 16704 1308 328694 1.289468522438 59.989471426424 588 7 7 4116 28812
165	1661752 16702 1000 328386 1.241824881995 59.941827786265 588 7 7 4116 28812
164	1678454 918 5241 328735 2 60 59 0 0 0 0
163	1679372 1273 5241 328735 2 60 59 0.023625 0.02625 1.546125 0.040523765625
162	1680645 918 5241 328735 2 60 59 7 7 413 2891
