file 1683698 1501514039                                         
version 2
run SinusoidalNoAttack-119-20170731-17:13:21-86302
attr CACCSpacing 5
attr attackAcc -30
attr attackPos 7
attr attackSpeed 150
attr attackStart 30
attr attacker 0
attr beaconInterval 0.1
attr configname SinusoidalNoAttack
attr controller 3
attr datetime 20170731-17:13:21
attr experiment SinusoidalNoAttack
attr fakeAcc "(0 == 4)"
attr fakePos "(0 == 2)"
attr fakeSpeed "(0 == 3)"
attr inifile omnetpp_119.ini
attr iterationvars "$controller=3, $sController=\"CONSENSUS\", $CACCSpacing=5, $leaderSpeed=120, $attacker=0, $attackStart=30, $attackSpeed=150, $attackPos=7, $attackAcc=-30, $0=15, $1=0.8, $nCars=8, $platoonSize=8, $nLanes=1, $beaconInterval=0.1, $priority=2, $packetSize=200, $ploegH=0.5, $leaderHeadway=1.2, $fakeSpeed=(0 == 3), $fakeAcc=(0 == 4), $fakePos=(0 == 2)"
attr iterationvarsf controller=3,sController=CONSENSUS,CACCSpacing=5,leaderSpeed=120,attacker=0,attackStart=30,attackSpeed=150,attackPos=7,attackAcc=-30,15,0.8,nCars=8,platoonSize=8,nLanes=1,beaconInterval=0.1,priority=2,packetSize=200,ploegH=0.5,leaderHeadway=1.2,fakeSpeed=(0_==_3),fakeAcc=(0_==_4),fakePos=(0_==_2)-
attr leaderHeadway 1.2
attr leaderSpeed 120
attr measurement "$controller=3, $sController=\"CONSENSUS\", $CACCSpacing=5, $leaderSpeed=120, $attacker=0, $attackStart=30, $attackSpeed=150, $attackPos=7, $attackAcc=-30, $0=15, $1=0.8, $nCars=8, $platoonSize=8, $nLanes=1, $beaconInterval=0.1, $priority=2, $packetSize=200, $ploegH=0.5, $leaderHeadway=1.2, $fakeSpeed=(0 == 3), $fakeAcc=(0 == 4), $fakePos=(0 == 2)"
attr nCars 8
attr nLanes 1
attr network scenario
attr packetSize 200
attr platoonSize 8
attr ploegH 0.5
attr priority 2
attr processid 86302
attr repetition 4
attr replication #4
attr resultdir results
attr runnumber 119
attr sController "\"CONSENSUS\""
attr seedset 4
param **.coreDebug false
param **.debug false
param **.headway 0.1s
param **.numberOfCars 8
param **.numberOfCarsPerPlatoon 8
param **.numberOfLanes 1
param **.numericController 3
param **.traffic.nCars 8
param **.traffic.nLanes 1
param **.traffic.platoonInsertDistance 15m
param **.traffic.platoonInsertHeadway 0.8s
param **.traffic.platoonInsertSpeed 120kmph
param **.traffic.platoonInsertTime "1 s"
param **.traffic.platoonLeaderHeadway 1.2s
param **.traffic.platoonSize 8
param **.traffic.platooningVType "\"vtypeauto\""
param **.traffic_type "\"PlatoonsTrafficManager\""
param *.**.nic.mac1609_4.bitrate 6Mbps
param *.**.nic.mac1609_4.txPower 100mW
param *.**.nic.mac1609_4.useServiceChannel false
param *.**.nic.phy80211p.analogueModels "xmldoc(\"config.xml\")"
param *.**.nic.phy80211p.decider "xmldoc(\"config.xml\")"
param *.**.nic.phy80211p.maxTXPower 100mW
param *.**.nic.phy80211p.sensitivity -94dBm
param *.**.nic.phy80211p.thermalNoise -95dBm
param *.**.nic.phy80211p.usePropagationDelay true
param *.**.nic.phy80211p.useThermalNoise true
param *.annotations.draw false
param *.connectionManager.alpha 2.0
param *.connectionManager.carrierFrequency "5.890e9 Hz"
param *.connectionManager.pMax 100mW
param *.connectionManager.sat -94dBm
param *.connectionManager.sendDirect true
param *.manager.autoShutdown true
param *.manager.commandLine "\"sumo --remote-port $port --seed $seed --configuration-file $configFile\""
param *.manager.configFile "\"./sumocfg/freeway.sumo.cfg\""
param *.manager.host "\"localhost\""
param *.manager.margin 25
param *.manager.moduleDisplayString "\"\""
param *.manager.moduleName "\"node\""
param *.manager.moduleType "\"Car\""
param *.manager.updateInterval 0.01s
param *.node[*].appl.attackStart 30s
param *.node[*].appl.attackerType 0
param *.node[*].appl.simulationDuration "60 s"
param *.node[*].appl_type "\"SimplePlatooningApp\""
param *.node[*].helper.nCars 8
param *.node[*].helper.nLanes 1
param *.node[*].helper.platoonSize 8
param *.node[*].helper_type "\"PositionHelper\""
param *.node[*].mobility.x 0
param *.node[*].mobility.y 0
param *.node[*].mobility.z 1.895
param *.node[*].prot.attackStart 30s
param *.node[*].prot.attackerType 0
param *.node[*].prot.attackingNode 3
param *.node[*].prot.beaconingInterval 0.1s
param *.node[*].prot.fakeAcc "(0 == 4)"
param *.node[*].prot.fakePos "(0 == 2)"
param *.node[*].prot.fakeSpeed "(0 == 3)"
param *.node[*].prot.maliciousAcc "-30 mpss"
param *.node[*].prot.maliciousSpeed 150kmph
param *.node[*].prot.packetSize 200
param *.node[*].prot.priority 2
param *.node[*].prot.shiftX "7 m"
param *.node[*].prot.useControllerAcceleration true
param *.node[*].protocol_type "\"SimplePlatooningBeaconing\""
param *.node[*].scenario.accHeadway 0.1s
param *.node[*].scenario.caccC1 0.5
param *.node[*].scenario.caccOmegaN "0.2 Hz"
param *.node[*].scenario.caccSpacing 5m
param *.node[*].scenario.caccXi 1
param *.node[*].scenario.controller "\"CONSENSUS\""
param *.node[*].scenario.engineTau "0.5 s"
param *.node[*].scenario.leaderHeadway 1.2s
param *.node[*].scenario.leaderOscillationFrequency "0.2 Hz"
param *.node[*].scenario.leaderSpeed 120kmph
param *.node[*].scenario.oscillationAmplitude "10 kmph"
param *.node[*].scenario.ploegH 0.5s
param *.node[*].scenario.ploegKd 0.7
param *.node[*].scenario.ploegKp 0.2
param *.node[*].scenario.startOscillating "5 s"
param *.node[*].scenario.useRealisticEngine false
param *.node[*].scenario_type "\"SinusoidalScenario\""
param *.node[*].unicast.packetLossRate 0
param *.obstacles.debug false
param *.playgroundSizeX 65000m
param *.playgroundSizeY 25000m
param *.playgroundSizeZ 50m
param *.world.use2D false
param *.world.useTorus false

vector 0  scenario.node[0].appl  distance  ETV
vector 1  scenario.node[0].appl  relativeSpeed  ETV
vector 2  scenario.node[0].appl  nodeId  ETV
vector 6  scenario.node[0].appl  acceleration  ETV
vector 7  scenario.node[0].appl  controllerAcceleration  ETV
vector 3  scenario.node[0].appl  speed  ETV
vector 4  scenario.node[0].appl  posx  ETV
vector 5  scenario.node[0].appl  posy  ETV
vector 22  scenario.node[1].appl  distance  ETV
vector 23  scenario.node[1].appl  relativeSpeed  ETV
vector 24  scenario.node[1].appl  nodeId  ETV
vector 28  scenario.node[1].appl  acceleration  ETV
vector 29  scenario.node[1].appl  controllerAcceleration  ETV
vector 25  scenario.node[1].appl  speed  ETV
vector 26  scenario.node[1].appl  posx  ETV
vector 27  scenario.node[1].appl  posy  ETV
vector 44  scenario.node[2].appl  distance  ETV
vector 45  scenario.node[2].appl  relativeSpeed  ETV
vector 46  scenario.node[2].appl  nodeId  ETV
vector 50  scenario.node[2].appl  acceleration  ETV
vector 51  scenario.node[2].appl  controllerAcceleration  ETV
vector 47  scenario.node[2].appl  speed  ETV
vector 48  scenario.node[2].appl  posx  ETV
vector 49  scenario.node[2].appl  posy  ETV
vector 66  scenario.node[3].appl  distance  ETV
vector 67  scenario.node[3].appl  relativeSpeed  ETV
vector 68  scenario.node[3].appl  nodeId  ETV
vector 72  scenario.node[3].appl  acceleration  ETV
vector 73  scenario.node[3].appl  controllerAcceleration  ETV
vector 69  scenario.node[3].appl  speed  ETV
vector 70  scenario.node[3].appl  posx  ETV
vector 71  scenario.node[3].appl  posy  ETV
vector 88  scenario.node[4].appl  distance  ETV
vector 89  scenario.node[4].appl  relativeSpeed  ETV
vector 90  scenario.node[4].appl  nodeId  ETV
vector 94  scenario.node[4].appl  acceleration  ETV
vector 95  scenario.node[4].appl  controllerAcceleration  ETV
vector 91  scenario.node[4].appl  speed  ETV
vector 92  scenario.node[4].appl  posx  ETV
vector 93  scenario.node[4].appl  posy  ETV
vector 110  scenario.node[5].appl  distance  ETV
vector 111  scenario.node[5].appl  relativeSpeed  ETV
vector 112  scenario.node[5].appl  nodeId  ETV
vector 116  scenario.node[5].appl  acceleration  ETV
vector 117  scenario.node[5].appl  controllerAcceleration  ETV
vector 113  scenario.node[5].appl  speed  ETV
vector 114  scenario.node[5].appl  posx  ETV
vector 115  scenario.node[5].appl  posy  ETV
vector 132  scenario.node[6].appl  distance  ETV
vector 133  scenario.node[6].appl  relativeSpeed  ETV
vector 134  scenario.node[6].appl  nodeId  ETV
vector 138  scenario.node[6].appl  acceleration  ETV
vector 139  scenario.node[6].appl  controllerAcceleration  ETV
vector 135  scenario.node[6].appl  speed  ETV
vector 136  scenario.node[6].appl  posx  ETV
vector 137  scenario.node[6].appl  posy  ETV
vector 154  scenario.node[7].appl  distance  ETV
vector 155  scenario.node[7].appl  relativeSpeed  ETV
vector 156  scenario.node[7].appl  nodeId  ETV
vector 160  scenario.node[7].appl  acceleration  ETV
vector 161  scenario.node[7].appl  controllerAcceleration  ETV
vector 157  scenario.node[7].appl  speed  ETV
vector 158  scenario.node[7].appl  posx  ETV
vector 159  scenario.node[7].appl  posy  ETV
vector 102  scenario.node[4].prot  frontDelay  ETV
vector 100  scenario.node[4].prot  frontDelayId  ETV
vector 35  scenario.node[1].prot  leaderDelay  ETV
vector 33  scenario.node[1].prot  leaderDelayId  ETV
vector 36  scenario.node[1].prot  frontDelay  ETV
vector 34  scenario.node[1].prot  frontDelayId  ETV
vector 57  scenario.node[2].prot  leaderDelay  ETV
vector 55  scenario.node[2].prot  leaderDelayId  ETV
vector 79  scenario.node[3].prot  leaderDelay  ETV
vector 77  scenario.node[3].prot  leaderDelayId  ETV
vector 101  scenario.node[4].prot  leaderDelay  ETV
vector 99  scenario.node[4].prot  leaderDelayId  ETV
vector 123  scenario.node[5].prot  leaderDelay  ETV
vector 121  scenario.node[5].prot  leaderDelayId  ETV
vector 145  scenario.node[6].prot  leaderDelay  ETV
vector 143  scenario.node[6].prot  leaderDelayId  ETV
vector 167  scenario.node[7].prot  leaderDelay  ETV
vector 165  scenario.node[7].prot  leaderDelayId  ETV
vector 80  scenario.node[3].prot  frontDelay  ETV
vector 78  scenario.node[3].prot  frontDelayId  ETV
vector 146  scenario.node[6].prot  frontDelay  ETV
vector 144  scenario.node[6].prot  frontDelayId  ETV
vector 58  scenario.node[2].prot  frontDelay  ETV
vector 56  scenario.node[2].prot  frontDelayId  ETV
vector 124  scenario.node[5].prot  frontDelay  ETV
vector 122  scenario.node[5].prot  frontDelayId  ETV
vector 168  scenario.node[7].prot  frontDelay  ETV
vector 166  scenario.node[7].prot  frontDelayId  ETV
vector 8  scenario.node[0].prot  nodeId  ETV
vector 9  scenario.node[0].prot  busyTime  ETV
vector 10  scenario.node[0].prot  collisions  ETV
vector 30  scenario.node[1].prot  nodeId  ETV
vector 31  scenario.node[1].prot  busyTime  ETV
vector 32  scenario.node[1].prot  collisions  ETV
vector 52  scenario.node[2].prot  nodeId  ETV
vector 53  scenario.node[2].prot  busyTime  ETV
vector 54  scenario.node[2].prot  collisions  ETV
vector 74  scenario.node[3].prot  nodeId  ETV
vector 75  scenario.node[3].prot  busyTime  ETV
vector 76  scenario.node[3].prot  collisions  ETV
vector 96  scenario.node[4].prot  nodeId  ETV
vector 97  scenario.node[4].prot  busyTime  ETV
vector 98  scenario.node[4].prot  collisions  ETV
vector 118  scenario.node[5].prot  nodeId  ETV
vector 119  scenario.node[5].prot  busyTime  ETV
vector 120  scenario.node[5].prot  collisions  ETV
vector 140  scenario.node[6].prot  nodeId  ETV
vector 141  scenario.node[6].prot  busyTime  ETV
vector 142  scenario.node[6].prot  collisions  ETV
vector 162  scenario.node[7].prot  nodeId  ETV
vector 163  scenario.node[7].prot  busyTime  ETV
vector 164  scenario.node[7].prot  collisions  ETV
7	11254 13859 232 328174 1.11 59.91 589 -1.5 1.5 -14.445953361693 993.24092335941
6	25113 18579 232 328174 1.11 59.91 589 -1.4722746795918 1.4513434175775 -12.507247963452 675.29835166926
5	43692 12081 232 328174 1.11 59.91 589 36.55 36.55 21527.95 786846.5725
4	55773 17898 232 328174 1.11 59.91 589 369.27519722025 2333.5913275401 796813.96008337 1267630975.6239
3	73671 17913 232 328174 1.11 59.91 589 32.043521415285 35.298048086563 19676.061011579 657739.0394163
1	91584 9725 232 328174 1.11 59.91 589 0 0 0 0
0	101309 10314 232 328174 1.11 59.91 589 -1 -1 -589 589
2	111623 9725 232 328174 1.11 59.91 589 0 0 0 0
10	121348 859 5234 328728 2 60 59 0 0 0 0
9	122207 1155 5234 328728 2 60 59 0.023625 0.02625 1.546125 0.040523765625
8	123362 800 5234 328728 2 60 59 0 0 0 0
29	124162 19120 233 328175 1.11 59.91 589 -1.9530783665239 1.9468631285519 -11.779758775429 1127.108512811
28	143282 19161 233 328175 1.11 59.91 589 -1.7217025478843 1.7126905238648 -3.4393006359867 803.94054259342
27	162443 12670 233 328175 1.11 59.91 589 36.55 36.55 21527.95 786846.5725
26	175113 18495 233 328175 1.11 59.91 589 323.60854072571 2288.6806371559 769879.14171266 1196022943.6342
25	193608 18511 233 328175 1.11 59.91 589 31.942423921773 35.288985292714 19683.946849809 658354.09228115
23	212119 19275 233 328175 1.11 59.91 589 -1.2227052298123 1.2115403792318 -7.7607657504466 439.92029760243
22	231394 18508 233 328175 1.11 59.91 589 40.621252515296 43.121508512396 24578.97608748 1025974.2830725
24	249902 10314 233 328175 1.11 59.91 589 1 1 589 589
36	260216 23694 964 328350 1.241826569828 59.941816109816 588 0.099988346724 0.100001367605 58.799990891195 5.8799981876124
35	283910 23694 964 328350 1.241826569828 59.941816109816 588 0.099988346724 0.100001367605 58.799990891195 5.8799981876124
34	307604 16108 964 328350 1.241826569828 59.941816109816 588 1 1 588 588
33	323712 16108 964 328350 1.241826569828 59.941816109816 588 1 1 588 588
32	339820 859 5235 328729 2 60 59 0 0 0 0
31	340679 1214 5235 328729 2 60 59 0.023625 0.02625 1.546125 0.040523765625
30	341893 859 5235 328729 2 60 59 1 1 59 59
51	342752 19201 234 328176 1.11 59.91 589 -1.4194129520254 1.4081436595582 -8.9717763548601 614.16059801689
50	361953 19264 234 328176 1.11 59.91 589 -1.2931900129324 1.2701327566269 -2.9410547925274 450.88810240532
49	381217 12670 234 328176 1.11 59.91 589 36.55 36.55 21527.95 786846.5725
48	393887 18483 234 328176 1.11 59.91 589 277.94186897278 2242.7321188272 742949.11888213 1126891091.6272
47	412370 18480 234 328176 1.11 59.91 589 32.295843583574 34.95672012506 19681.142459001 657937.74137927
45	430850 19623 234 328176 1.11 59.91 589 -0.38763626038828 0.36033547690302 2.8387838141115 34.032185371316
44	450473 18492 234 328176 1.11 59.91 589 41.383662349639 42.319133547647 24573.966742716 1025291.0710031
46	468965 10314 234 328176 1.11 59.91 589 2 2 1178 2356
58	479279 23725 1176 328562 1.281936940776 59.981939483673 588 0.09998834657 0.100001367941 58.800003894104 5.8800007880603
57	503004 23699 970 328356 1.241826722155 59.941816263079 588 0.099988346606 0.100001367706 58.799990892131 5.8799981877996
56	526703 16135 1176 328562 1.281936940776 59.981939483673 588 2 2 1176 2352
55	542838 16117 970 328356 1.241826722155 59.941816263079 588 2 2 1176 2352
54	558955 859 5236 328730 2 60 59 0 0 0 0
53	559814 1214 5236 328730 2 60 59 0.023625 0.02625 1.546125 0.040523765625
52	561028 859 5236 328730 2 60 59 2 2 118 236
73	561887 19168 235 328177 1.11 59.91 589 -1.4974843481718 1.4894836749993 -9.8215391436094 675.4349006249
72	581055 19242 235 328177 1.11 59.91 589 -1.3293509917915 1.3189437020316 -3.5309789541039 487.26070268625
71	600297 12670 235 328177 1.11 59.91 589 36.55 36.55 21527.95 786846.5725
70	612967 18508 235 328177 1.11 59.91 589 232.27519721985 2197.0890161482 716019.84870328 1060217979.8931
69	631475 18500 235 328177 1.11 59.91 589 32.24916996879 34.898777939245 19681.357758617 657971.99626467
67	649975 20116 235 328177 1.11 59.91 589 -0.099670613039677 0.12238292447156 -0.18588906770971 1.6883063810671
66	670091 18476 235 328177 1.11 59.91 589 41.615115786329 41.987275514622 24573.274484837 1025210.287381
68	688567 10314 235 328177 1.11 59.91 589 3 3 1767 5301
80	698881 23710 1040 328420 1.262753874483 59.962756415338 588 0.099988346886 0.100001367688 58.800003892062 5.8800007876519
79	722591 23692 976 328362 1.241826874483 59.941816415334 588 0.099988346619 0.100001367688 58.799990892058 5.879998187785
78	746283 16126 1040 328420 1.262753874483 59.962756415338 588 3 3 1764 5292
77	762409 16107 976 328362 1.241826874483 59.941816415334 588 3 3 1764 5292
76	778516 859 5237 328731 2 60 59 0 0 0 0
75	779375 1214 5237 328731 2 60 59 0.023625 0.02625 1.546125 0.040523765625
74	780589 859 5237 328731 2 60 59 3 3 177 531
95	781448 19183 236 328178 1.11 59.91 589 -1.4619047731688 1.4568815468709 -9.4490806201406 649.34048194331
94	800631 19260 236 328178 1.11 59.91 589 -1.2921860761821 1.287134890439 -3.238467457016 462.91985242459
93	819891 12670 236 328178 1.11 59.91 589 36.55 36.55 21527.95 786846.5725
92	832561 18495 236 328178 1.11 59.91 589 186.60852546692 2151.405856789 689090.01337756 995998034.46411
91	851056 18480 236 328178 1.11 59.91 589 32.278282486008 34.863746186776 19681.202960656 657945.47918419
89	869536 20194 236 328178 1.11 59.91 589 -0.045539434270452 0.052133871933322 0.19010775059885 0.29288388898989
88	889730 18501 236 328178 1.11 59.91 589 41.638730192602 41.897147995382 24573.832229759 1025254.8473702
90	908231 10314 236 328178 1.11 59.91 589 4 4 2356 9424
102	918545 24284 904 328290 1.240529112845 59.94053165725 588 0.099988346439 0.100001368009 58.800003895612 5.8800007883619
101	942829 24294 982 328368 1.24182702681 59.941816567714 588 0.099988346611 0.100001367705 58.799990892111 5.8799981877956
100	967123 16696 904 328290 1.240529112845 59.94053165725 588 4 4 2352 9408
99	983819 16115 982 328368 1.24182702681 59.941816567714 588 4 4 2352 9408
98	999934 859 5238 328732 2 60 59 0 0 0 0
97	1000793 1214 5238 328732 2 60 59 0.023625 0.02625 1.546125 0.040523765625
96	1002007 859 5238 328732 2 60 59 4 4 236 944
117	1002866 19783 237 328179 1.11 59.91 589 -1.4031855056375 1.4018123849111 -9.1164709497771 599.40946446057
116	1022649 19858 237 328179 1.11 59.91 589 -1.2577834642329 1.2516997094231 -3.1676756980055 437.79189003839
115	1042507 13259 237 328179 1.11 59.91 589 36.55 36.55 21527.95 786846.5725
114	1055766 19085 237 328179 1.11 59.91 589 140.94186897278 2105.7161857147 662160.3251808 934235083.82713
113	1074851 19077 237 328179 1.11 59.91 589 32.307750464524 34.827697437971 19680.975007269 657913.37847159
111	1093928 20738 237 328179 1.11 59.91 589 -0.045044818938976 0.053411302123543 0.26033806131773 0.32457620405399
110	1114666 19085 237 328179 1.11 59.91 589 41.643920409913 41.865348824701 24573.683637699 1025241.5210208
112	1133751 10903 237 328179 1.11 59.91 589 5 5 2945 14725
124	1144654 24314 1242 328628 1.287394397759 59.987396940715 588 0.099988346503 0.100001367921 58.800003894163 5.8800007880721
123	1168968 24284 988 328374 1.241827179138 59.941816720117 588 0.099988346601 0.100001367721 58.799990892186 5.8799981878106
122	1193252 16716 1242 328628 1.287394397759 59.987396940715 588 5 5 2940 14700
121	1209968 16706 988 328374 1.241827179138 59.941816720117 588 5 5 2940 14700
120	1226674 918 5239 328733 2 60 59 0 0 0 0
119	1227592 1273 5239 328733 2 60 59 0.023625 0.02625 1.546125 0.040523765625
118	1228865 918 5239 328733 2 60 59 5 5 295 1475
139	1229783 19808 238 328180 1.11 59.91 589 -1.3783875908786 1.3769026337177 -8.9432258943863 578.66734634232
138	1249591 19864 238 328180 1.11 59.91 589 -1.2266739127639 1.2228460739266 -3.0885907049303 417.55333954868
137	1269455 13259 238 328180 1.11 59.91 589 36.55 36.55 21527.95 786846.5725
136	1282714 19075 238 328180 1.11 59.91 589 95.275197219849 2060.030901953 635230.66298619 874929086.48442
135	1301789 19075 238 328180 1.11 59.91 589 32.331714548492 34.792723407263 19680.791415918 657887.75790827
133	1320864 20799 238 328180 1.11 59.91 589 -0.035828850447679 0.037548184045761 0.21526810777986 0.21460576566572
132	1341663 19089 238 328180 1.11 59.91 589 41.649566014053 41.830757783549 24573.658522783 1025238.7624459
134	1360752 10903 238 328180 1.11 59.91 589 6 6 3534 21204
146	1371655 24286 1106 328486 1.266716331466 59.966705872507 588 0.099988346594 0.100001367731 58.799990892248 5.879998187823
145	1395941 24276 994 328380 1.241827331466 59.941816872506 588 0.099988346593 0.10000136773 58.799990892247 5.8799981878228
144	1420217 16700 1106 328486 1.266716331466 59.966705872507 588 6 6 3528 21168
143	1436917 16690 994 328380 1.241827331466 59.941816872506 588 6 6 3528 21168
142	1453607 918 5240 328734 2 60 59 0 0 0 0
141	1454525 1273 5240 328734 2 60 59 0.023625 0.02625 1.546125 0.040523765625
140	1455798 918 5240 328734 2 60 59 6 6 354 2124
161	1456716 19795 239 328181 1.11 59.91 589 -1.3359028819392 1.3342373403681 -8.6618894153222 542.98172991172
160	1476511 19888 239 328181 1.11 59.91 589 -1.1959394671869 1.1923270979494 -2.9912173890217 396.7017796624
159	1496399 13259 239 328181 1.11 59.91 589 36.55 36.55 21527.95 786846.5725
158	1509658 19084 239 328181 1.11 59.91 589 49.608533096313 2014.3429178888 608301.06305955 818080710.33037
157	1528742 19110 239 328181 1.11 59.91 589 32.358290195553 34.757295614712 19680.581420927 657859.76897282
155	1547852 20778 239 328181 1.11 59.91 589 -0.03515255518289 0.037548714018669 0.24088089828081 0.22079386618065
154	1568630 19102 239 328181 1.11 59.91 589 41.650170475662 41.80915783345 24573.595726743 1025233.0907141
156	1587732 10903 239 328181 1.11 59.91 589 7 7 4123 28861
168	1598635 24271 1308 328694 1.289471702414 59.989474245498 588 0.099988346547 0.100001367974 58.800003894291 5.8800007880977
167	1622906 24268 1000 328386 1.241827483793 59.941817024904 588 0.099988346584 0.100001367739 58.799990892318 5.879998187837
166	1647174 16715 1308 328694 1.289471702414 59.989474245498 588 7 7 4116 28812
165	1663889 16700 1000 328386 1.241827483793 59.941817024904 588 7 7 4116 28812
164	1680589 918 5241 328735 2 60 59 0 0 0 0
163	1681507 1273 5241 328735 2 60 59 0.023625 0.02625 1.546125 0.040523765625
162	1682780 918 5241 328735 2 60 59 7 7 413 2891
