file 1687894 1501512768                                         
version 2
run SinusoidalNoAttack-38-20170731-16:52:17-10041
attr CACCSpacing 12.5
attr attackAcc -30
attr attackPos 7
attr attackSpeed 150
attr attackStart 30
attr attacker 0
attr beaconInterval 0.1
attr configname SinusoidalNoAttack
attr controller 1
attr datetime 20170731-16:52:17
attr experiment SinusoidalNoAttack
attr fakeAcc "(0 == 4)"
attr fakePos "(0 == 2)"
attr fakeSpeed "(0 == 3)"
attr inifile omnetpp_38.ini
attr iterationvars "$controller=1, $sController=\"CACC\", $CACCSpacing=12.5, $leaderSpeed=100, $attacker=0, $attackStart=30, $attackSpeed=150, $attackPos=7, $attackAcc=-30, $0=12.5, $1=0, $nCars=8, $platoonSize=8, $nLanes=1, $beaconInterval=0.1, $priority=2, $packetSize=200, $ploegH=0.5, $leaderHeadway=1.2, $fakeSpeed=(0 == 3), $fakeAcc=(0 == 4), $fakePos=(0 == 2)"
attr iterationvarsf controller=1,sController=CACC,CACCSpacing=12.5,leaderSpeed=100,attacker=0,attackStart=30,attackSpeed=150,attackPos=7,attackAcc=-30,12.5,0,nCars=8,platoonSize=8,nLanes=1,beaconInterval=0.1,priority=2,packetSize=200,ploegH=0.5,leaderHeadway=1.2,fakeSpeed=(0_==_3),fakeAcc=(0_==_4),fakePos=(0_==_2)-
attr leaderHeadway 1.2
attr leaderSpeed 100
attr measurement "$controller=1, $sController=\"CACC\", $CACCSpacing=12.5, $leaderSpeed=100, $attacker=0, $attackStart=30, $attackSpeed=150, $attackPos=7, $attackAcc=-30, $0=12.5, $1=0, $nCars=8, $platoonSize=8, $nLanes=1, $beaconInterval=0.1, $priority=2, $packetSize=200, $ploegH=0.5, $leaderHeadway=1.2, $fakeSpeed=(0 == 3), $fakeAcc=(0 == 4), $fakePos=(0 == 2)"
attr nCars 8
attr nLanes 1
attr network scenario
attr packetSize 200
attr platoonSize 8
attr ploegH 0.5
attr priority 2
attr processid 10041
attr repetition 3
attr replication #3
attr resultdir results
attr runnumber 38
attr sController "\"CACC\""
attr seedset 3
param **.coreDebug false
param **.debug false
param **.headway 0.1s
param **.numberOfCars 8
param **.numberOfCarsPerPlatoon 8
param **.numberOfLanes 1
param **.numericController 1
param **.traffic.nCars 8
param **.traffic.nLanes 1
param **.traffic.platoonInsertDistance 12.5m
param **.traffic.platoonInsertHeadway 0s
param **.traffic.platoonInsertSpeed 100kmph
param **.traffic.platoonInsertTime "1 s"
param **.traffic.platoonLeaderHeadway 1.2s
param **.traffic.platoonSize 8
param **.traffic.platooningVType "\"vtypeauto\""
param **.traffic_type "\"PlatoonsTrafficManager\""
param *.**.nic.mac1609_4.bitrate 6Mbps
param *.**.nic.mac1609_4.txPower 100mW
param *.**.nic.mac1609_4.useServiceChannel false
param *.**.nic.phy80211p.analogueModels "xmldoc(\"config.xml\")"
param *.**.nic.phy80211p.decider "xmldoc(\"config.xml\")"
param *.**.nic.phy80211p.maxTXPower 100mW
param *.**.nic.phy80211p.sensitivity -94dBm
param *.**.nic.phy80211p.thermalNoise -95dBm
param *.**.nic.phy80211p.usePropagationDelay true
param *.**.nic.phy80211p.useThermalNoise true
param *.annotations.draw false
param *.connectionManager.alpha 2.0
param *.connectionManager.carrierFrequency "5.890e9 Hz"
param *.connectionManager.pMax 100mW
param *.connectionManager.sat -94dBm
param *.connectionManager.sendDirect true
param *.manager.autoShutdown true
param *.manager.commandLine "\"sumo --remote-port $port --seed $seed --configuration-file $configFile\""
param *.manager.configFile "\"./sumocfg/freeway.sumo.cfg\""
param *.manager.host "\"localhost\""
param *.manager.margin 25
param *.manager.moduleDisplayString "\"\""
param *.manager.moduleName "\"node\""
param *.manager.moduleType "\"Car\""
param *.manager.updateInterval 0.01s
param *.node[*].appl.attackStart 30s
param *.node[*].appl.attackerType 0
param *.node[*].appl.simulationDuration "60 s"
param *.node[*].appl_type "\"SimplePlatooningApp\""
param *.node[*].helper.nCars 8
param *.node[*].helper.nLanes 1
param *.node[*].helper.platoonSize 8
param *.node[*].helper_type "\"PositionHelper\""
param *.node[*].mobility.x 0
param *.node[*].mobility.y 0
param *.node[*].mobility.z 1.895
param *.node[*].prot.attackStart 30s
param *.node[*].prot.attackerType 0
param *.node[*].prot.attackingNode 3
param *.node[*].prot.beaconingInterval 0.1s
param *.node[*].prot.fakeAcc "(0 == 4)"
param *.node[*].prot.fakePos "(0 == 2)"
param *.node[*].prot.fakeSpeed "(0 == 3)"
param *.node[*].prot.maliciousAcc "-30 mpss"
param *.node[*].prot.maliciousSpeed 150kmph
param *.node[*].prot.packetSize 200
param *.node[*].prot.priority 2
param *.node[*].prot.shiftX "7 m"
param *.node[*].prot.useControllerAcceleration true
param *.node[*].protocol_type "\"SimplePlatooningBeaconing\""
param *.node[*].scenario.accHeadway 0.1s
param *.node[*].scenario.caccC1 0.5
param *.node[*].scenario.caccOmegaN "0.2 Hz"
param *.node[*].scenario.caccSpacing 12.5m
param *.node[*].scenario.caccXi 1
param *.node[*].scenario.controller "\"CACC\""
param *.node[*].scenario.engineTau "0.5 s"
param *.node[*].scenario.leaderHeadway 1.2s
param *.node[*].scenario.leaderOscillationFrequency "0.2 Hz"
param *.node[*].scenario.leaderSpeed 100kmph
param *.node[*].scenario.oscillationAmplitude "10 kmph"
param *.node[*].scenario.ploegH 0.5s
param *.node[*].scenario.ploegKd 0.7
param *.node[*].scenario.ploegKp 0.2
param *.node[*].scenario.startOscillating "5 s"
param *.node[*].scenario.useRealisticEngine false
param *.node[*].scenario_type "\"SinusoidalScenario\""
param *.node[*].unicast.packetLossRate 0
param *.obstacles.debug false
param *.playgroundSizeX 65000m
param *.playgroundSizeY 25000m
param *.playgroundSizeZ 50m
param *.world.use2D false
param *.world.useTorus false

vector 0  scenario.node[0].appl  distance  ETV
vector 1  scenario.node[0].appl  relativeSpeed  ETV
vector 2  scenario.node[0].appl  nodeId  ETV
vector 6  scenario.node[0].appl  acceleration  ETV
vector 7  scenario.node[0].appl  controllerAcceleration  ETV
vector 3  scenario.node[0].appl  speed  ETV
vector 4  scenario.node[0].appl  posx  ETV
vector 5  scenario.node[0].appl  posy  ETV
vector 22  scenario.node[1].appl  distance  ETV
vector 23  scenario.node[1].appl  relativeSpeed  ETV
vector 24  scenario.node[1].appl  nodeId  ETV
vector 28  scenario.node[1].appl  acceleration  ETV
vector 29  scenario.node[1].appl  controllerAcceleration  ETV
vector 25  scenario.node[1].appl  speed  ETV
vector 26  scenario.node[1].appl  posx  ETV
vector 27  scenario.node[1].appl  posy  ETV
vector 44  scenario.node[2].appl  distance  ETV
vector 45  scenario.node[2].appl  relativeSpeed  ETV
vector 46  scenario.node[2].appl  nodeId  ETV
vector 50  scenario.node[2].appl  acceleration  ETV
vector 51  scenario.node[2].appl  controllerAcceleration  ETV
vector 47  scenario.node[2].appl  speed  ETV
vector 48  scenario.node[2].appl  posx  ETV
vector 49  scenario.node[2].appl  posy  ETV
vector 66  scenario.node[3].appl  distance  ETV
vector 67  scenario.node[3].appl  relativeSpeed  ETV
vector 68  scenario.node[3].appl  nodeId  ETV
vector 72  scenario.node[3].appl  acceleration  ETV
vector 73  scenario.node[3].appl  controllerAcceleration  ETV
vector 69  scenario.node[3].appl  speed  ETV
vector 70  scenario.node[3].appl  posx  ETV
vector 71  scenario.node[3].appl  posy  ETV
vector 88  scenario.node[4].appl  distance  ETV
vector 89  scenario.node[4].appl  relativeSpeed  ETV
vector 90  scenario.node[4].appl  nodeId  ETV
vector 94  scenario.node[4].appl  acceleration  ETV
vector 95  scenario.node[4].appl  controllerAcceleration  ETV
vector 91  scenario.node[4].appl  speed  ETV
vector 92  scenario.node[4].appl  posx  ETV
vector 93  scenario.node[4].appl  posy  ETV
vector 110  scenario.node[5].appl  distance  ETV
vector 111  scenario.node[5].appl  relativeSpeed  ETV
vector 112  scenario.node[5].appl  nodeId  ETV
vector 116  scenario.node[5].appl  acceleration  ETV
vector 117  scenario.node[5].appl  controllerAcceleration  ETV
vector 113  scenario.node[5].appl  speed  ETV
vector 114  scenario.node[5].appl  posx  ETV
vector 115  scenario.node[5].appl  posy  ETV
vector 132  scenario.node[6].appl  distance  ETV
vector 133  scenario.node[6].appl  relativeSpeed  ETV
vector 134  scenario.node[6].appl  nodeId  ETV
vector 138  scenario.node[6].appl  acceleration  ETV
vector 139  scenario.node[6].appl  controllerAcceleration  ETV
vector 135  scenario.node[6].appl  speed  ETV
vector 136  scenario.node[6].appl  posx  ETV
vector 137  scenario.node[6].appl  posy  ETV
vector 154  scenario.node[7].appl  distance  ETV
vector 155  scenario.node[7].appl  relativeSpeed  ETV
vector 156  scenario.node[7].appl  nodeId  ETV
vector 160  scenario.node[7].appl  acceleration  ETV
vector 161  scenario.node[7].appl  controllerAcceleration  ETV
vector 157  scenario.node[7].appl  speed  ETV
vector 158  scenario.node[7].appl  posx  ETV
vector 159  scenario.node[7].appl  posy  ETV
vector 35  scenario.node[1].prot  leaderDelay  ETV
vector 33  scenario.node[1].prot  leaderDelayId  ETV
vector 36  scenario.node[1].prot  frontDelay  ETV
vector 34  scenario.node[1].prot  frontDelayId  ETV
vector 57  scenario.node[2].prot  leaderDelay  ETV
vector 55  scenario.node[2].prot  leaderDelayId  ETV
vector 79  scenario.node[3].prot  leaderDelay  ETV
vector 77  scenario.node[3].prot  leaderDelayId  ETV
vector 101  scenario.node[4].prot  leaderDelay  ETV
vector 99  scenario.node[4].prot  leaderDelayId  ETV
vector 123  scenario.node[5].prot  leaderDelay  ETV
vector 121  scenario.node[5].prot  leaderDelayId  ETV
vector 145  scenario.node[6].prot  leaderDelay  ETV
vector 143  scenario.node[6].prot  leaderDelayId  ETV
vector 167  scenario.node[7].prot  leaderDelay  ETV
vector 165  scenario.node[7].prot  leaderDelayId  ETV
vector 168  scenario.node[7].prot  frontDelay  ETV
vector 166  scenario.node[7].prot  frontDelayId  ETV
vector 58  scenario.node[2].prot  frontDelay  ETV
vector 56  scenario.node[2].prot  frontDelayId  ETV
vector 124  scenario.node[5].prot  frontDelay  ETV
vector 122  scenario.node[5].prot  frontDelayId  ETV
vector 80  scenario.node[3].prot  frontDelay  ETV
vector 78  scenario.node[3].prot  frontDelayId  ETV
vector 146  scenario.node[6].prot  frontDelay  ETV
vector 144  scenario.node[6].prot  frontDelayId  ETV
vector 102  scenario.node[4].prot  frontDelay  ETV
vector 100  scenario.node[4].prot  frontDelayId  ETV
vector 8  scenario.node[0].prot  nodeId  ETV
vector 9  scenario.node[0].prot  busyTime  ETV
vector 10  scenario.node[0].prot  collisions  ETV
vector 30  scenario.node[1].prot  nodeId  ETV
vector 31  scenario.node[1].prot  busyTime  ETV
vector 32  scenario.node[1].prot  collisions  ETV
vector 52  scenario.node[2].prot  nodeId  ETV
vector 53  scenario.node[2].prot  busyTime  ETV
vector 54  scenario.node[2].prot  collisions  ETV
vector 74  scenario.node[3].prot  nodeId  ETV
vector 75  scenario.node[3].prot  busyTime  ETV
vector 76  scenario.node[3].prot  collisions  ETV
vector 96  scenario.node[4].prot  nodeId  ETV
vector 97  scenario.node[4].prot  busyTime  ETV
vector 98  scenario.node[4].prot  collisions  ETV
vector 118  scenario.node[5].prot  nodeId  ETV
vector 119  scenario.node[5].prot  busyTime  ETV
vector 120  scenario.node[5].prot  collisions  ETV
vector 140  scenario.node[6].prot  nodeId  ETV
vector 141  scenario.node[6].prot  busyTime  ETV
vector 142  scenario.node[6].prot  collisions  ETV
vector 162  scenario.node[7].prot  nodeId  ETV
vector 163  scenario.node[7].prot  busyTime  ETV
vector 164  scenario.node[7].prot  collisions  ETV
7	11241 13860 232 328174 1.11 59.91 589 -1.5 1.5 -14.445974034379 993.24092368185
6	25101 18594 232 328174 1.11 59.91 589 -1.4722746794938 1.4513434175793 -12.50726914995 675.29835222675
5	43695 12081 232 328174 1.11 59.91 589 36.55 36.55 21527.95 786846.5725
4	55776 17926 232 328174 1.11 59.91 589 157.6237403867 1795.2732059291 575947.91977949 694975055.15497
3	73702 17905 232 328174 1.11 59.91 589 26.487965859734 29.742492528104 16403.83880962 457295.15275867
1	91607 9725 232 328174 1.11 59.91 589 0 0 0 0
0	101332 10314 232 328174 1.11 59.91 589 -1 -1 -589 589
2	111646 9725 232 328174 1.11 59.91 589 0 0 0 0
10	121371 858 5056 328550 2 60 59 0 0 0 0
9	122229 1558 5056 328550 2 60 59 0.022761451327 0.026255705669 1.545253345617 0.04048328554235
8	123787 799 5056 328550 2 60 59 0 0 0 0
29	124586 19061 233 328175 1.11 59.91 589 -1.5233934357054 1.5241491623774 -15.644310431946 1008.6178882494
28	143647 19161 233 328175 1.11 59.91 589 -1.4872877577414 1.4632261139358 -12.161306672926 682.72590317845
27	162808 12670 233 328175 1.11 59.91 589 36.55 36.55 21527.95 786846.5725
26	175478 18506 233 328175 1.11 59.91 589 141.12373275757 1778.860605006 566226.58492341 676126552.25588
25	193984 18491 233 328175 1.11 59.91 589 26.480322316472 29.747905505466 16404.726295363 457349.19078879
23	212475 20084 233 328175 1.11 59.91 589 -0.085371141434354 0.085492520647904 -0.76241305170284 2.4587007701621
22	232559 18491 233 328175 1.11 59.91 589 12.408770811873 12.629159395258 7365.3526057984 92104.74504358
24	251050 10314 233 328175 1.11 59.91 589 1 1 589 589
36	261364 23692 836 328222 1.269558486027 59.969562609608 588 0.099999429287 0.100012432927 58.80000355457 5.8800007151137
35	285056 23692 836 328222 1.269558486027 59.969562609608 588 0.099999429287 0.100012432927 58.80000355457 5.8800007151137
34	308748 16114 836 328222 1.269558486027 59.969562609608 588 1 1 588 588
33	324862 16114 836 328222 1.269558486027 59.969562609608 588 1 1 588 588
32	340976 858 5057 328551 2 60 59 0 0 0 0
31	341834 1615 5057 328551 2 60 59 0.022761506365 0.026255705839 1.545253400355 0.040483288032094
30	343449 858 5057 328551 2 60 59 1 1 59 59
51	344307 19059 234 328176 1.11 59.91 589 -1.5293286872941 1.5293867900473 -15.676101834489 1011.6550349664
50	363366 19186 234 328176 1.11 59.91 589 -1.4784118402602 1.4535232553808 -12.003143997508 676.20832243173
49	382552 12670 234 328176 1.11 59.91 589 36.55 36.55 21527.95 786846.5725
48	395222 18497 234 328176 1.11 59.91 589 124.62373275757 1762.3749268253 556506.6622839 657600006.58835
47	413719 18485 234 328176 1.11 59.91 589 26.486193488573 29.741727654373 16404.87524299 457352.92154023
45	432204 20595 234 328176 1.11 59.91 589 -0.011889504097415 0.011086176319679 -0.027334560408541 0.021432730890138
44	452799 18477 234 328176 1.11 59.91 589 12.481973643463 12.536336339624 7363.9256184666 92066.994760702
46	471276 10314 234 328176 1.11 59.91 589 2 2 1178 2356
58	481590 23696 1046 328432 1.299190201522 59.999194324769 588 0.099999429278 0.100012433848 58.800003554236 5.8800007150469
57	505286 23687 842 328228 1.269558541065 59.969562664596 588 0.099999429287 0.10001243292 58.80000355452 5.8800007151037
56	528973 16120 1046 328432 1.299190201522 59.999194324769 588 2 2 1176 2352
55	545093 16109 842 328228 1.269558541065 59.969562664596 588 2 2 1176 2352
54	561202 858 5058 328552 2 60 59 0 0 0 0
53	562060 1615 5058 328552 2 60 59 0.022761561403 0.026255705845 1.545253455341 0.040483290534863
52	563675 858 5058 328552 2 60 59 2 2 118 236
73	564533 19028 235 328177 1.11 59.91 589 -1.488891558698 1.4893729726718 -15.50310869868 944.5209407262
72	583561 19151 235 328177 1.11 59.91 589 -1.4638941715642 1.4373649583561 -11.660809049961 662.02482645403
71	602712 12670 235 328177 1.11 59.91 589 36.55 36.55 21527.95 786846.5725
70	615382 18491 235 328177 1.11 59.91 589 108.12373275757 1745.9027007579 546786.64466147 639394501.17914
69	633873 18488 235 328177 1.11 59.91 589 26.501249890367 29.728229654452 16405.16532976 457359.87643409
67	652361 20131 235 328177 1.11 59.91 589 -0.037725780856153 0.03395847453773 -0.17005533010036 0.26639835536778
66	672492 18472 235 328177 1.11 59.91 589 12.459965299492 12.569674840228 7364.0234241607 92069.742060853
68	690964 10314 235 328177 1.11 59.91 589 3 3 1767 5301
80	701278 23707 1180 328569 1.300211476712 60.000215599596 588 0.099999429269 0.100012434265 58.800003553873 5.8800007149743
79	724985 23707 848 328234 1.269558596103 59.969562719535 588 0.099999429285 0.100012432906 58.800003554421 5.8800007150839
78	748692 16123 1180 328569 1.300211476712 60.000215599596 588 3 3 1764 5292
77	764815 16126 848 328234 1.269558596103 59.969562719535 588 3 3 1764 5292
76	780941 858 5059 328553 2 60 59 0 0 0 0
75	781799 1614 5059 328553 2 60 59 0.022760506365 0.026255705836 1.545252400404 0.040483242512654
74	783413 858 5059 328553 2 60 59 3 3 177 531
95	784271 19043 236 328178 1.11 59.91 589 -1.4835633878471 1.4833693148265 -15.39202326935 927.22023120503
94	803314 19153 236 328178 1.11 59.91 589 -1.4536758385546 1.4275434613324 -11.488232097635 651.81103069349
93	822467 12670 236 328178 1.11 59.91 589 36.55 36.55 21527.95 786846.5725
92	835137 18480 236 328178 1.11 59.91 589 91.623736572266 1729.4102613859 537066.71676691 621509782.84297
91	853617 18509 236 328178 1.11 59.91 589 26.512585313547 29.714956318662 16405.247031441 457358.02983347
89	872126 20521 236 328178 1.11 59.91 589 -0.012164205210535 0.013355030334221 0.034906409610649 0.023459651936397
88	892647 18497 236 328178 1.11 59.91 589 12.485056985963 12.533794859323 7363.9295285954 92067.06456664
90	911144 10314 236 328178 1.11 59.91 589 4 4 2356 9424
102	921458 24289 1312 328707 1.306029751902 60.006059874718 588 0.099908429269 0.100103430989 58.799964553805 5.8799940549101
101	945747 24304 854 328240 1.269558651141 59.969562774545 588 0.099999429282 0.100012432902 58.800003554393 5.8800007150783
100	970051 16703 1312 328707 1.306029751902 60.006059874718 588 4 4 2352 9408
99	986754 16126 854 328240 1.269558651141 59.969562774545 588 4 4 2352 9408
98	1002880 858 5060 328554 2 60 59 0 0 0 0
97	1003738 1614 5060 328554 2 60 59 0.022761451327 0.026255705848 1.545253345396 0.04048328553075
96	1005352 858 5060 328554 2 60 59 4 4 236 944
117	1006210 19649 237 328179 1.11 59.91 589 -1.5014801008159 1.5049213851071 -15.529613217915 964.54064328481
116	1025859 19757 237 328179 1.11 59.91 589 -1.4472992857858 1.4222287804987 -11.444305846826 645.61791007009
115	1045616 13259 237 328179 1.11 59.91 589 36.55 36.55 21527.95 786846.5725
114	1058875 19103 237 328179 1.11 59.91 589 75.123736572266 1712.9066138445 527346.854022 603945792.8461
113	1077978 19084 237 328179 1.11 59.91 589 26.518664607304 29.70551146898 16405.212121033 457352.26774024
111	1097062 20787 237 328179 1.11 59.91 589 -0.017702938786307 0.019160363388561 0.1497927291017 0.091637875965036
110	1117849 19063 237 328179 1.11 59.91 589 12.495198755231 12.518762788123 7363.862046704 92065.321879547
112	1136912 10903 237 328179 1.11 59.91 589 5 5 2945 14725
124	1147815 24302 1112 328498 1.299603366636 59.999594489763 588 0.099999429272 0.10001243406 58.800003554116 5.8800007150229
123	1172117 24297 860 328246 1.269558706179 59.969562829595 588 0.09999942928 0.100012432903 58.800003554405 5.8800007150807
122	1196414 16707 1112 328498 1.299603366636 59.999594489763 588 5 5 2940 14700
121	1213121 16715 860 328246 1.269558706179 59.969562829595 588 5 5 2940 14700
120	1229836 917 5061 328555 2 60 59 0 0 0 0
119	1230753 1674 5061 328555 2 60 59 0.022760396289 0.026255705867 1.545252290347 0.040483237502893
118	1232427 917 5061 328555 2 60 59 5 5 295 1475
139	1233344 19628 238 328180 1.11 59.91 589 -1.4833385394513 1.4846827347764 -15.382574994941 933.98149705649
138	1252972 19741 238 328180 1.11 59.91 589 -1.4512379497091 1.4282436178156 -11.655280148575 654.36115110086
137	1272713 13259 238 328180 1.11 59.91 589 36.55 36.55 21527.95 786846.5725
136	1285972 19080 238 328180 1.11 59.91 589 58.623734664917 1696.3902560483 517627.13020366 586702248.77842
135	1305052 19077 238 328180 1.11 59.91 589 26.508110048597 29.711478871478 16405.040880731 457347.85844769
133	1324129 20685 238 328180 1.11 59.91 589 -0.04212528055378 0.046328257223145 0.28568336011939 0.49867610675806
132	1344814 19081 238 328180 1.11 59.91 589 12.465125353081 12.537558427855 7363.7203935303 92061.917583586
134	1363895 10903 238 328180 1.11 59.91 589 6 6 3534 21204
146	1374798 24290 1249 328644 1.305616641826 60.005607764752 588 0.099999429265 0.100012434229 58.799990553915 5.8799981148285
145	1399088 24286 866 328252 1.269558761217 59.969562884691 588 0.099999429282 0.100012432913 58.800003554463 5.8800007150923
144	1423374 16702 1249 328644 1.305616641826 60.005607764752 588 6 6 3528 21168
143	1440076 16702 866 328252 1.269558761217 59.969562884691 588 6 6 3528 21168
142	1456778 917 5062 328556 2 60 59 0 0 0 0
141	1457695 1673 5062 328556 2 60 59 0.022761341251 0.02625570587 1.545253235249 0.040483280516056
140	1459368 917 5062 328556 2 60 59 6 6 354 2124
161	1460285 19665 239 328181 1.11 59.91 589 -1.5021746528309 1.504902773699 -15.554006996936 972.72426709275
160	1479950 19790 239 328181 1.11 59.91 589 -1.4497273375472 1.4256790438093 -11.556708043709 650.71284783323
159	1499740 13259 239 328181 1.11 59.91 589 36.55 36.55 21527.95 786846.5725
158	1512999 19088 239 328181 1.11 59.91 589 42.123735618591 1679.8990002952 507907.24495604 569779414.97454
157	1532087 19082 239 328181 1.11 59.91 589 26.51239314528 29.70814986739 16405.131956524 457350.75251714
155	1551169 21235 239 328181 1.11 59.91 589 -0.0042090102955186 0.0045408548916299 0.025477008205542 0.0034980661541768
154	1572404 19075 239 328181 1.11 59.91 589 12.48875375068 12.518944168282 7363.8870691314 92065.966677289
156	1591479 10903 239 328181 1.11 59.91 589 7 7 4123 28861
168	1602382 24286 980 328360 1.292107926332 59.992099049711 588 0.099999429282 0.100012434289 58.799990554368 5.8799981149191
167	1626668 24286 872 328258 1.269558816256 59.969562939698 588 0.099999429282 0.100012432909 58.800003554431 5.8800007150859
166	1650954 16711 980 328360 1.292107926332 59.992099049711 588 7 7 4116 28812
165	1667665 16716 872 328258 1.269558816256 59.969562939698 588 7 7 4116 28812
164	1684381 917 5063 328557 2 60 59 0 0 0 0
163	1685298 1679 5063 328557 2 60 59 0.022761286213 0.026255705865 1.545253180243 0.040483278012261
162	1686977 917 5063 328557 2 60 59 7 7 413 2891
