file 1683841 1501512482                                         
version 2
run SinusoidalNoAttack-15-20170731-16:47:32-63383
attr CACCSpacing 5
attr attackAcc -30
attr attackPos 7
attr attackSpeed 150
attr attackStart 30
attr attacker 0
attr beaconInterval 0.1
attr configname SinusoidalNoAttack
attr controller 1
attr datetime 20170731-16:47:32
attr experiment SinusoidalNoAttack
attr fakeAcc "(0 == 4)"
attr fakePos "(0 == 2)"
attr fakeSpeed "(0 == 3)"
attr inifile omnetpp_15.ini
attr iterationvars "$controller=1, $sController=\"CACC\", $CACCSpacing=5, $leaderSpeed=120, $attacker=0, $attackStart=30, $attackSpeed=150, $attackPos=7, $attackAcc=-30, $0=5, $1=0, $nCars=8, $platoonSize=8, $nLanes=1, $beaconInterval=0.1, $priority=2, $packetSize=200, $ploegH=0.5, $leaderHeadway=1.2, $fakeSpeed=(0 == 3), $fakeAcc=(0 == 4), $fakePos=(0 == 2)"
attr iterationvarsf controller=1,sController=CACC,CACCSpacing=5,leaderSpeed=120,attacker=0,attackStart=30,attackSpeed=150,attackPos=7,attackAcc=-30,5,0,nCars=8,platoonSize=8,nLanes=1,beaconInterval=0.1,priority=2,packetSize=200,ploegH=0.5,leaderHeadway=1.2,fakeSpeed=(0_==_3),fakeAcc=(0_==_4),fakePos=(0_==_2)-
attr leaderHeadway 1.2
attr leaderSpeed 120
attr measurement "$controller=1, $sController=\"CACC\", $CACCSpacing=5, $leaderSpeed=120, $attacker=0, $attackStart=30, $attackSpeed=150, $attackPos=7, $attackAcc=-30, $0=5, $1=0, $nCars=8, $platoonSize=8, $nLanes=1, $beaconInterval=0.1, $priority=2, $packetSize=200, $ploegH=0.5, $leaderHeadway=1.2, $fakeSpeed=(0 == 3), $fakeAcc=(0 == 4), $fakePos=(0 == 2)"
attr nCars 8
attr nLanes 1
attr network scenario
attr packetSize 200
attr platoonSize 8
attr ploegH 0.5
attr priority 2
attr processid 63383
attr repetition 0
attr replication #0
attr resultdir results
attr runnumber 15
attr sController "\"CACC\""
attr seedset 0
param **.coreDebug false
param **.debug false
param **.headway 0.1s
param **.numberOfCars 8
param **.numberOfCarsPerPlatoon 8
param **.numberOfLanes 1
param **.numericController 1
param **.traffic.nCars 8
param **.traffic.nLanes 1
param **.traffic.platoonInsertDistance 5m
param **.traffic.platoonInsertHeadway 0s
param **.traffic.platoonInsertSpeed 120kmph
param **.traffic.platoonInsertTime "1 s"
param **.traffic.platoonLeaderHeadway 1.2s
param **.traffic.platoonSize 8
param **.traffic.platooningVType "\"vtypeauto\""
param **.traffic_type "\"PlatoonsTrafficManager\""
param *.**.nic.mac1609_4.bitrate 6Mbps
param *.**.nic.mac1609_4.txPower 100mW
param *.**.nic.mac1609_4.useServiceChannel false
param *.**.nic.phy80211p.analogueModels "xmldoc(\"config.xml\")"
param *.**.nic.phy80211p.decider "xmldoc(\"config.xml\")"
param *.**.nic.phy80211p.maxTXPower 100mW
param *.**.nic.phy80211p.sensitivity -94dBm
param *.**.nic.phy80211p.thermalNoise -95dBm
param *.**.nic.phy80211p.usePropagationDelay true
param *.**.nic.phy80211p.useThermalNoise true
param *.annotations.draw false
param *.connectionManager.alpha 2.0
param *.connectionManager.carrierFrequency "5.890e9 Hz"
param *.connectionManager.pMax 100mW
param *.connectionManager.sat -94dBm
param *.connectionManager.sendDirect true
param *.manager.autoShutdown true
param *.manager.commandLine "\"sumo --remote-port $port --seed $seed --configuration-file $configFile\""
param *.manager.configFile "\"./sumocfg/freeway.sumo.cfg\""
param *.manager.host "\"localhost\""
param *.manager.margin 25
param *.manager.moduleDisplayString "\"\""
param *.manager.moduleName "\"node\""
param *.manager.moduleType "\"Car\""
param *.manager.updateInterval 0.01s
param *.node[*].appl.attackStart 30s
param *.node[*].appl.attackerType 0
param *.node[*].appl.simulationDuration "60 s"
param *.node[*].appl_type "\"SimplePlatooningApp\""
param *.node[*].helper.nCars 8
param *.node[*].helper.nLanes 1
param *.node[*].helper.platoonSize 8
param *.node[*].helper_type "\"PositionHelper\""
param *.node[*].mobility.x 0
param *.node[*].mobility.y 0
param *.node[*].mobility.z 1.895
param *.node[*].prot.attackStart 30s
param *.node[*].prot.attackerType 0
param *.node[*].prot.attackingNode 3
param *.node[*].prot.beaconingInterval 0.1s
param *.node[*].prot.fakeAcc "(0 == 4)"
param *.node[*].prot.fakePos "(0 == 2)"
param *.node[*].prot.fakeSpeed "(0 == 3)"
param *.node[*].prot.maliciousAcc "-30 mpss"
param *.node[*].prot.maliciousSpeed 150kmph
param *.node[*].prot.packetSize 200
param *.node[*].prot.priority 2
param *.node[*].prot.shiftX "7 m"
param *.node[*].prot.useControllerAcceleration true
param *.node[*].protocol_type "\"SimplePlatooningBeaconing\""
param *.node[*].scenario.accHeadway 0.1s
param *.node[*].scenario.caccC1 0.5
param *.node[*].scenario.caccOmegaN "0.2 Hz"
param *.node[*].scenario.caccSpacing 5m
param *.node[*].scenario.caccXi 1
param *.node[*].scenario.controller "\"CACC\""
param *.node[*].scenario.engineTau "0.5 s"
param *.node[*].scenario.leaderHeadway 1.2s
param *.node[*].scenario.leaderOscillationFrequency "0.2 Hz"
param *.node[*].scenario.leaderSpeed 120kmph
param *.node[*].scenario.oscillationAmplitude "10 kmph"
param *.node[*].scenario.ploegH 0.5s
param *.node[*].scenario.ploegKd 0.7
param *.node[*].scenario.ploegKp 0.2
param *.node[*].scenario.startOscillating "5 s"
param *.node[*].scenario.useRealisticEngine false
param *.node[*].scenario_type "\"SinusoidalScenario\""
param *.node[*].unicast.packetLossRate 0
param *.obstacles.debug false
param *.playgroundSizeX 65000m
param *.playgroundSizeY 25000m
param *.playgroundSizeZ 50m
param *.world.use2D false
param *.world.useTorus false

vector 0  scenario.node[0].appl  distance  ETV
vector 1  scenario.node[0].appl  relativeSpeed  ETV
vector 2  scenario.node[0].appl  nodeId  ETV
vector 6  scenario.node[0].appl  acceleration  ETV
vector 7  scenario.node[0].appl  controllerAcceleration  ETV
vector 3  scenario.node[0].appl  speed  ETV
vector 4  scenario.node[0].appl  posx  ETV
vector 5  scenario.node[0].appl  posy  ETV
vector 22  scenario.node[1].appl  distance  ETV
vector 23  scenario.node[1].appl  relativeSpeed  ETV
vector 24  scenario.node[1].appl  nodeId  ETV
vector 28  scenario.node[1].appl  acceleration  ETV
vector 29  scenario.node[1].appl  controllerAcceleration  ETV
vector 25  scenario.node[1].appl  speed  ETV
vector 26  scenario.node[1].appl  posx  ETV
vector 27  scenario.node[1].appl  posy  ETV
vector 44  scenario.node[2].appl  distance  ETV
vector 45  scenario.node[2].appl  relativeSpeed  ETV
vector 46  scenario.node[2].appl  nodeId  ETV
vector 50  scenario.node[2].appl  acceleration  ETV
vector 51  scenario.node[2].appl  controllerAcceleration  ETV
vector 47  scenario.node[2].appl  speed  ETV
vector 48  scenario.node[2].appl  posx  ETV
vector 49  scenario.node[2].appl  posy  ETV
vector 66  scenario.node[3].appl  distance  ETV
vector 67  scenario.node[3].appl  relativeSpeed  ETV
vector 68  scenario.node[3].appl  nodeId  ETV
vector 72  scenario.node[3].appl  acceleration  ETV
vector 73  scenario.node[3].appl  controllerAcceleration  ETV
vector 69  scenario.node[3].appl  speed  ETV
vector 70  scenario.node[3].appl  posx  ETV
vector 71  scenario.node[3].appl  posy  ETV
vector 88  scenario.node[4].appl  distance  ETV
vector 89  scenario.node[4].appl  relativeSpeed  ETV
vector 90  scenario.node[4].appl  nodeId  ETV
vector 94  scenario.node[4].appl  acceleration  ETV
vector 95  scenario.node[4].appl  controllerAcceleration  ETV
vector 91  scenario.node[4].appl  speed  ETV
vector 92  scenario.node[4].appl  posx  ETV
vector 93  scenario.node[4].appl  posy  ETV
vector 110  scenario.node[5].appl  distance  ETV
vector 111  scenario.node[5].appl  relativeSpeed  ETV
vector 112  scenario.node[5].appl  nodeId  ETV
vector 116  scenario.node[5].appl  acceleration  ETV
vector 117  scenario.node[5].appl  controllerAcceleration  ETV
vector 113  scenario.node[5].appl  speed  ETV
vector 114  scenario.node[5].appl  posx  ETV
vector 115  scenario.node[5].appl  posy  ETV
vector 132  scenario.node[6].appl  distance  ETV
vector 133  scenario.node[6].appl  relativeSpeed  ETV
vector 134  scenario.node[6].appl  nodeId  ETV
vector 138  scenario.node[6].appl  acceleration  ETV
vector 139  scenario.node[6].appl  controllerAcceleration  ETV
vector 135  scenario.node[6].appl  speed  ETV
vector 136  scenario.node[6].appl  posx  ETV
vector 137  scenario.node[6].appl  posy  ETV
vector 154  scenario.node[7].appl  distance  ETV
vector 155  scenario.node[7].appl  relativeSpeed  ETV
vector 156  scenario.node[7].appl  nodeId  ETV
vector 160  scenario.node[7].appl  acceleration  ETV
vector 161  scenario.node[7].appl  controllerAcceleration  ETV
vector 157  scenario.node[7].appl  speed  ETV
vector 158  scenario.node[7].appl  posx  ETV
vector 159  scenario.node[7].appl  posy  ETV
vector 80  scenario.node[3].prot  frontDelay  ETV
vector 78  scenario.node[3].prot  frontDelayId  ETV
vector 58  scenario.node[2].prot  frontDelay  ETV
vector 56  scenario.node[2].prot  frontDelayId  ETV
vector 168  scenario.node[7].prot  frontDelay  ETV
vector 166  scenario.node[7].prot  frontDelayId  ETV
vector 35  scenario.node[1].prot  leaderDelay  ETV
vector 33  scenario.node[1].prot  leaderDelayId  ETV
vector 36  scenario.node[1].prot  frontDelay  ETV
vector 34  scenario.node[1].prot  frontDelayId  ETV
vector 57  scenario.node[2].prot  leaderDelay  ETV
vector 55  scenario.node[2].prot  leaderDelayId  ETV
vector 79  scenario.node[3].prot  leaderDelay  ETV
vector 77  scenario.node[3].prot  leaderDelayId  ETV
vector 101  scenario.node[4].prot  leaderDelay  ETV
vector 99  scenario.node[4].prot  leaderDelayId  ETV
vector 123  scenario.node[5].prot  leaderDelay  ETV
vector 121  scenario.node[5].prot  leaderDelayId  ETV
vector 145  scenario.node[6].prot  leaderDelay  ETV
vector 143  scenario.node[6].prot  leaderDelayId  ETV
vector 167  scenario.node[7].prot  leaderDelay  ETV
vector 165  scenario.node[7].prot  leaderDelayId  ETV
vector 124  scenario.node[5].prot  frontDelay  ETV
vector 122  scenario.node[5].prot  frontDelayId  ETV
vector 102  scenario.node[4].prot  frontDelay  ETV
vector 100  scenario.node[4].prot  frontDelayId  ETV
vector 146  scenario.node[6].prot  frontDelay  ETV
vector 144  scenario.node[6].prot  frontDelayId  ETV
vector 8  scenario.node[0].prot  nodeId  ETV
vector 9  scenario.node[0].prot  busyTime  ETV
vector 10  scenario.node[0].prot  collisions  ETV
vector 30  scenario.node[1].prot  nodeId  ETV
vector 31  scenario.node[1].prot  busyTime  ETV
vector 32  scenario.node[1].prot  collisions  ETV
vector 52  scenario.node[2].prot  nodeId  ETV
vector 53  scenario.node[2].prot  busyTime  ETV
vector 54  scenario.node[2].prot  collisions  ETV
vector 74  scenario.node[3].prot  nodeId  ETV
vector 75  scenario.node[3].prot  busyTime  ETV
vector 76  scenario.node[3].prot  collisions  ETV
vector 96  scenario.node[4].prot  nodeId  ETV
vector 97  scenario.node[4].prot  busyTime  ETV
vector 98  scenario.node[4].prot  collisions  ETV
vector 118  scenario.node[5].prot  nodeId  ETV
vector 119  scenario.node[5].prot  busyTime  ETV
vector 120  scenario.node[5].prot  collisions  ETV
vector 140  scenario.node[6].prot  nodeId  ETV
vector 141  scenario.node[6].prot  busyTime  ETV
vector 142  scenario.node[6].prot  collisions  ETV
vector 162  scenario.node[7].prot  nodeId  ETV
vector 163  scenario.node[7].prot  busyTime  ETV
vector 164  scenario.node[7].prot  collisions  ETV
7	11214 13859 232 328174 1.11 59.91 589 -1.5 1.5 -14.445953361693 993.24092335941
6	25073 18579 232 328174 1.11 59.91 589 -1.4722746795918 1.4513434175775 -12.507247963452 675.29835166926
5	43652 12081 232 328174 1.11 59.91 589 36.55 36.55 21527.95 786846.5725
4	55733 17903 232 328174 1.11 59.91 589 99.773198318881 2064.0893286388 638077.28273047 880924917.47954
3	73636 17913 232 328174 1.11 59.91 589 32.043521415285 35.298048086563 19676.061011579 657739.0394163
1	91549 9725 232 328174 1.11 59.91 589 0 0 0 0
0	101274 10314 232 328174 1.11 59.91 589 -1 -1 -589 589
2	111588 9725 232 328174 1.11 59.91 589 0 0 0 0
10	121313 858 5102 328596 2 60 59 0 0 0 0
9	122171 1154 5102 328596 2 60 59 0.022969 0.02625 1.545469 0.040493199961
8	123325 799 5102 328596 2 60 59 0 0 0 0
29	124124 19064 233 328175 1.11 59.91 589 -1.5129716532521 1.5129648401275 -15.574755379119 998.84117662609
28	143188 19145 233 328175 1.11 59.91 589 -1.4840815548887 1.4595456971342 -12.191912184784 679.48382208272
27	162333 12670 233 328175 1.11 59.91 589 36.55 36.55 21527.95 786846.5725
26	175003 18483 233 328175 1.11 59.91 589 90.773198318481 2055.1652999678 632775.1803775 869486712.35323
25	193486 18489 233 328175 1.11 59.91 589 32.039353521387 35.304159893558 19676.832916071 657793.32801587
23	211975 20066 233 328175 1.11 59.91 589 -0.074693845780963 0.072861086593811 -0.64683201206874 1.7868717058684
22	232041 18492 233 328175 1.11 59.91 589 4.9147227423337 5.111315805394 2946.1177910575 14737.837433409
24	250533 10314 233 328175 1.11 59.91 589 1 1 589 589
36	260847 23706 1032 328418 1.254911230853 59.95491970606 588 0.099907839312 0.100089841893 58.800020315789 5.8800051084303
35	284553 23706 1032 328418 1.254911230853 59.95491970606 588 0.099907839312 0.100089841893 58.800020315789 5.8800051084303
34	308259 16129 1032 328418 1.254911230853 59.95491970606 588 1 1 588 588
33	324388 16129 1032 328418 1.254911230853 59.95491970606 588 1 1 588 588
32	340517 858 5103 328597 2 60 59 0 0 0 0
31	341375 1213 5103 328597 2 60 59 0.022969 0.02625 1.545469 0.040493199961
30	342588 858 5103 328597 2 60 59 1 1 59 59
51	343446 19051 234 328176 1.11 59.91 589 -1.4952754280285 1.497099229686 -15.647917772309 972.59613303567
50	362497 19162 234 328176 1.11 59.91 589 -1.4761121252597 1.4494360537391 -11.88461381283 672.52742391129
49	381659 12670 234 328176 1.11 59.91 589 36.55 36.55 21527.95 786846.5725
48	394329 18503 234 328176 1.11 59.91 589 81.773198318481 2046.2039041925 627473.54192082 858144497.5216
47	412832 18484 234 328176 1.11 59.91 589 32.045162833843 35.298898402684 19677.230302018 657815.00876384
45	431316 20106 234 328176 1.11 59.91 589 -0.04259245498352 0.039108598996961 -0.27546682543298 0.4211924114181
44	451422 18470 234 328176 1.11 59.91 589 4.9490554831135 5.073511482403 2945.6464043958 14732.018237626
46	469892 10314 234 328176 1.11 59.91 589 2 2 1178 2356
58	480206 23712 900 328286 1.229657900624 59.929653376478 588 0.099998839147 0.100011842923 58.799994316436 5.8799988712981
57	503918 23689 1038 328424 1.254911260874 59.954919735948 588 0.09990783932 0.100089841908 58.800020315656 5.8800051084037
56	527607 16120 900 328286 1.229657900624 59.929653376478 588 2 2 1176 2352
55	543727 16106 1038 328424 1.254911260874 59.954919735948 588 2 2 1176 2352
54	559833 858 5104 328598 2 60 59 0 0 0 0
53	560691 1213 5104 328598 2 60 59 0.022969 0.02625 1.545469 0.040493199961
52	561904 858 5104 328598 2 60 59 2 2 118 236
73	562762 19042 235 328177 1.11 59.91 589 -1.4890877725994 1.4891493121668 -15.532053954132 946.51738140948
72	581804 19146 235 328177 1.11 59.91 589 -1.46348876643 1.4362599121647 -11.632961517772 660.25457660027
71	600950 12670 235 328177 1.11 59.91 589 36.55 36.55 21527.95 786846.5725
70	613620 18497 235 328177 1.11 59.91 589 72.773198318481 2037.2203927684 622171.92768982 846897896.01968
69	632117 18508 235 328177 1.11 59.91 589 32.058137221663 35.285603803889 19677.404196517 657818.79191684
67	650625 20296 235 328177 1.11 59.91 589 -0.022067710201583 0.020412781438374 -0.055048361344397 0.076637653656723
66	670921 18474 235 328177 1.11 59.91 589 4.9704448161783 5.0493612979845 2945.617708899 14731.3637726
68	689395 10314 235 328177 1.11 59.91 589 3 3 1767 5301
80	699709 23717 832 328218 1.213904870603 59.913900346661 588 0.099998839139 0.100011843023 58.79999431664 5.8799988713389
79	723426 23691 1044 328430 1.254911290894 59.95491976591 588 0.099907839322 0.100089841918 58.800020315598 5.8800051083921
78	747117 16111 832 328218 1.213904870603 59.913900346661 588 3 3 1764 5292
77	763228 16106 1044 328430 1.254911290894 59.95491976591 588 3 3 1764 5292
76	779334 858 5105 328599 2 60 59 0 0 0 0
75	780192 1213 5105 328599 2 60 59 0.022968 0.02625 1.545468 0.040493154024
74	781405 858 5105 328599 2 60 59 3 3 177 531
95	782263 19033 236 328178 1.11 59.91 589 -1.482153724041 1.4817994860489 -15.381532559125 924.84923301979
94	801296 19127 236 328178 1.11 59.91 589 -1.4527427935754 1.4262347645158 -11.50069419874 650.31121761224
93	820423 12670 236 328178 1.11 59.91 589 36.55 36.55 21527.95 786846.5725
92	833093 18500 236 328178 1.11 59.91 589 63.773198318481 2028.2223450649 616870.37126629 835746847.26148
91	851593 18487 236 328178 1.11 59.91 589 32.068521286776 35.272441981975 19677.428319945 657814.13298942
89	870080 20374 236 328178 1.11 59.91 589 -0.013533746819107 0.014563179925339 0.092206187580501 0.041070891444963
88	890454 18486 236 328178 1.11 59.91 589 4.987206780112 5.0268302668283 2945.5569059974 14730.61174261
90	908940 10314 236 328178 1.11 59.91 589 4 4 2356 9424
102	919254 24300 1246 328641 1.303561561081 60.003557036071 588 0.099998839151 0.100011843011 58.799994315572 5.8799988711253
101	943554 24298 1050 328436 1.254911320915 59.954919795923 588 0.09990783932 0.100089841921 58.80002031559 5.8800051083905
100	967852 16706 1246 328641 1.303561561081 60.003557036071 588 4 4 2352 9408
99	984558 16120 1050 328436 1.254911320915 59.954919795923 588 4 4 2352 9408
98	1000678 858 5106 328600 2 60 59 0 0 0 0
97	1001536 1213 5106 328600 2 60 59 0.022969 0.02625 1.545469 0.040493199961
96	1002749 858 5106 328600 2 60 59 4 4 236 944
117	1003607 19643 237 328179 1.11 59.91 589 -1.489667262386 1.491466760912 -15.421940559207 951.12785141444
116	1023250 19727 237 328179 1.11 59.91 589 -1.447561898987 1.4231777649861 -11.596272198202 646.0431148155
115	1042977 13259 237 328179 1.11 59.91 589 36.55 36.55 21527.95 786846.5725
114	1056236 19086 237 328179 1.11 59.91 589 54.773196411133 2019.2024728253 611568.9209887 824691140.01667
113	1075322 19090 237 328179 1.11 59.91 589 32.071157075721 35.264169477983 19677.226162177 657798.08887298
111	1094412 20690 237 328179 1.11 59.91 589 -0.038476788347012 0.039951808960105 0.31716471034287 0.46072420921042
110	1115102 19085 237 328179 1.11 59.91 589 4.9765401933885 5.0346852361465 2945.4462344315 14729.592103911
112	1134187 10903 237 328179 1.11 59.91 589 5 5 2945 14725
124	1145090 24293 1172 328558 1.26574753106 59.965756006138 588 0.099998839152 0.100011842825 58.80000731566 5.8800014712817
123	1169383 24291 1056 328442 1.254911350936 59.954919826011 588 0.099907839315 0.100089841915 58.800020315657 5.8800051084039
122	1193674 16711 1172 328558 1.26574753106 59.965756006138 588 5 5 2940 14700
121	1210385 16702 1056 328442 1.254911350936 59.954919826011 588 5 5 2940 14700
120	1227087 917 5107 328601 2 60 59 0 0 0 0
119	1228004 1272 5107 328601 2 60 59 0.022968 0.02625 1.545468 0.040493154024
118	1229276 917 5107 328601 2 60 59 5 5 295 1475
139	1230193 19618 238 328180 1.11 59.91 589 -1.4807582973376 1.4812783517611 -15.370168832205 931.11554507622
138	1249811 19705 238 328180 1.11 59.91 589 -1.4503739007857 1.4266963766985 -11.664139733104 652.67979821792
137	1269516 13259 238 328180 1.11 59.91 589 36.55 36.55 21527.95 786846.5725
136	1282775 19064 238 328180 1.11 59.91 589 45.773196411133 2010.2029819679 606267.4607405 813730687.18952
135	1301839 19082 238 328180 1.11 59.91 589 32.06451839761 35.269322533378 19677.228720129 657802.00472302
133	1320921 20794 238 328180 1.11 59.91 589 -0.01993372925061 0.022610065418895 0.1134047700659 0.099331151604248
132	1341715 19070 238 328180 1.11 59.91 589 4.9922592537146 5.0142923059555 2945.4602993556 14729.618080993
134	1360785 10903 238 328180 1.11 59.91 589 6 6 3534 21204
146	1371688 24282 1312 328701 1.305157621123 60.005166096182 588 0.09999883915 0.100011842696 58.800007315641 5.8800014712779
145	1395970 24292 1062 328448 1.254911380957 59.954919856031 588 0.099907839316 0.100089841913 58.800020315656 5.8800051084037
144	1420262 16699 1312 328701 1.305157621123 60.005166096182 588 6 6 3528 21168
143	1436961 16707 1062 328448 1.254911380957 59.954919856031 588 6 6 3528 21168
142	1453668 917 5108 328602 2 60 59 0 0 0 0
141	1454585 1272 5108 328602 2 60 59 0.022969 0.02625 1.545469 0.040493199961
140	1455857 917 5108 328602 2 60 59 6 6 354 2124
161	1456774 19643 239 328181 1.11 59.91 589 -1.4938774147282 1.4938088648604 -15.603256276584 962.34114251965
160	1476417 19724 239 328181 1.11 59.91 589 -1.4564665523054 1.4314739865959 -11.585955659215 656.36407253868
159	1496141 13259 239 328181 1.11 59.91 589 36.55 36.55 21527.95 786846.5725
158	1509400 19092 239 328181 1.11 59.91 589 36.773196411133 2001.2224689221 600965.91188028 802865501.74051
157	1528492 19083 239 328181 1.11 59.91 589 32.061704510887 35.274746716482 19677.426804216 657817.67728197
155	1547575 21201 239 328181 1.11 59.91 589 -0.0095325897944534 0.011006410312881 -0.081442690280362 0.024502897991065
154	1568776 19072 239 328181 1.11 59.91 589 4.9783945117256 5.0256964368233 2945.5528219015 14730.634450415
156	1587848 10903 239 328181 1.11 59.91 589 7 7 4123 28861
168	1598751 24265 975 328355 1.254433050728 59.954428526518 588 0.099998839143 0.100011842991 58.799994316372 5.8799988712853
167	1623016 24306 1068 328454 1.254911410977 59.954919885986 588 0.099907839321 0.10008984192 58.800020315591 5.8800051083907
166	1647322 16697 975 328355 1.254433050728 59.954428526518 588 7 7 4116 28812
165	1664019 16716 1068 328454 1.254911410977 59.954919885986 588 7 7 4116 28812
164	1680735 917 5109 328603 2 60 59 0 0 0 0
163	1681652 1272 5109 328603 2 60 59 0.022969 0.02625 1.545469 0.040493199961
162	1682924 917 5109 328603 2 60 59 7 7 413 2891
