file 1683773 1501512770                                         
version 2
run SinusoidalNoAttack-34-20170731-16:52:18-74582
attr CACCSpacing 12.5
attr attackAcc -30
attr attackPos 7
attr attackSpeed 150
attr attackStart 30
attr attacker 0
attr beaconInterval 0.1
attr configname SinusoidalNoAttack
attr controller 1
attr datetime 20170731-16:52:18
attr experiment SinusoidalNoAttack
attr fakeAcc "(0 == 4)"
attr fakePos "(0 == 2)"
attr fakeSpeed "(0 == 3)"
attr inifile omnetpp_34.ini
attr iterationvars "$controller=1, $sController=\"CACC\", $CACCSpacing=12.5, $leaderSpeed=80, $attacker=0, $attackStart=30, $attackSpeed=150, $attackPos=7, $attackAcc=-30, $0=12.5, $1=0, $nCars=8, $platoonSize=8, $nLanes=1, $beaconInterval=0.1, $priority=2, $packetSize=200, $ploegH=0.5, $leaderHeadway=1.2, $fakeSpeed=(0 == 3), $fakeAcc=(0 == 4), $fakePos=(0 == 2)"
attr iterationvarsf controller=1,sController=CACC,CACCSpacing=12.5,leaderSpeed=80,attacker=0,attackStart=30,attackSpeed=150,attackPos=7,attackAcc=-30,12.5,0,nCars=8,platoonSize=8,nLanes=1,beaconInterval=0.1,priority=2,packetSize=200,ploegH=0.5,leaderHeadway=1.2,fakeSpeed=(0_==_3),fakeAcc=(0_==_4),fakePos=(0_==_2)-
attr leaderHeadway 1.2
attr leaderSpeed 80
attr measurement "$controller=1, $sController=\"CACC\", $CACCSpacing=12.5, $leaderSpeed=80, $attacker=0, $attackStart=30, $attackSpeed=150, $attackPos=7, $attackAcc=-30, $0=12.5, $1=0, $nCars=8, $platoonSize=8, $nLanes=1, $beaconInterval=0.1, $priority=2, $packetSize=200, $ploegH=0.5, $leaderHeadway=1.2, $fakeSpeed=(0 == 3), $fakeAcc=(0 == 4), $fakePos=(0 == 2)"
attr nCars 8
attr nLanes 1
attr network scenario
attr packetSize 200
attr platoonSize 8
attr ploegH 0.5
attr priority 2
attr processid 74582
attr repetition 4
attr replication #4
attr resultdir results
attr runnumber 34
attr sController "\"CACC\""
attr seedset 4
param **.coreDebug false
param **.debug false
param **.headway 0.1s
param **.numberOfCars 8
param **.numberOfCarsPerPlatoon 8
param **.numberOfLanes 1
param **.numericController 1
param **.traffic.nCars 8
param **.traffic.nLanes 1
param **.traffic.platoonInsertDistance 12.5m
param **.traffic.platoonInsertHeadway 0s
param **.traffic.platoonInsertSpeed 80kmph
param **.traffic.platoonInsertTime "1 s"
param **.traffic.platoonLeaderHeadway 1.2s
param **.traffic.platoonSize 8
param **.traffic.platooningVType "\"vtypeauto\""
param **.traffic_type "\"PlatoonsTrafficManager\""
param *.**.nic.mac1609_4.bitrate 6Mbps
param *.**.nic.mac1609_4.txPower 100mW
param *.**.nic.mac1609_4.useServiceChannel false
param *.**.nic.phy80211p.analogueModels "xmldoc(\"config.xml\")"
param *.**.nic.phy80211p.decider "xmldoc(\"config.xml\")"
param *.**.nic.phy80211p.maxTXPower 100mW
param *.**.nic.phy80211p.sensitivity -94dBm
param *.**.nic.phy80211p.thermalNoise -95dBm
param *.**.nic.phy80211p.usePropagationDelay true
param *.**.nic.phy80211p.useThermalNoise true
param *.annotations.draw false
param *.connectionManager.alpha 2.0
param *.connectionManager.carrierFrequency "5.890e9 Hz"
param *.connectionManager.pMax 100mW
param *.connectionManager.sat -94dBm
param *.connectionManager.sendDirect true
param *.manager.autoShutdown true
param *.manager.commandLine "\"sumo --remote-port $port --seed $seed --configuration-file $configFile\""
param *.manager.configFile "\"./sumocfg/freeway.sumo.cfg\""
param *.manager.host "\"localhost\""
param *.manager.margin 25
param *.manager.moduleDisplayString "\"\""
param *.manager.moduleName "\"node\""
param *.manager.moduleType "\"Car\""
param *.manager.updateInterval 0.01s
param *.node[*].appl.attackStart 30s
param *.node[*].appl.attackerType 0
param *.node[*].appl.simulationDuration "60 s"
param *.node[*].appl_type "\"SimplePlatooningApp\""
param *.node[*].helper.nCars 8
param *.node[*].helper.nLanes 1
param *.node[*].helper.platoonSize 8
param *.node[*].helper_type "\"PositionHelper\""
param *.node[*].mobility.x 0
param *.node[*].mobility.y 0
param *.node[*].mobility.z 1.895
param *.node[*].prot.attackStart 30s
param *.node[*].prot.attackerType 0
param *.node[*].prot.attackingNode 3
param *.node[*].prot.beaconingInterval 0.1s
param *.node[*].prot.fakeAcc "(0 == 4)"
param *.node[*].prot.fakePos "(0 == 2)"
param *.node[*].prot.fakeSpeed "(0 == 3)"
param *.node[*].prot.maliciousAcc "-30 mpss"
param *.node[*].prot.maliciousSpeed 150kmph
param *.node[*].prot.packetSize 200
param *.node[*].prot.priority 2
param *.node[*].prot.shiftX "7 m"
param *.node[*].prot.useControllerAcceleration true
param *.node[*].protocol_type "\"SimplePlatooningBeaconing\""
param *.node[*].scenario.accHeadway 0.1s
param *.node[*].scenario.caccC1 0.5
param *.node[*].scenario.caccOmegaN "0.2 Hz"
param *.node[*].scenario.caccSpacing 12.5m
param *.node[*].scenario.caccXi 1
param *.node[*].scenario.controller "\"CACC\""
param *.node[*].scenario.engineTau "0.5 s"
param *.node[*].scenario.leaderHeadway 1.2s
param *.node[*].scenario.leaderOscillationFrequency "0.2 Hz"
param *.node[*].scenario.leaderSpeed 80kmph
param *.node[*].scenario.oscillationAmplitude "10 kmph"
param *.node[*].scenario.ploegH 0.5s
param *.node[*].scenario.ploegKd 0.7
param *.node[*].scenario.ploegKp 0.2
param *.node[*].scenario.startOscillating "5 s"
param *.node[*].scenario.useRealisticEngine false
param *.node[*].scenario_type "\"SinusoidalScenario\""
param *.node[*].unicast.packetLossRate 0
param *.obstacles.debug false
param *.playgroundSizeX 65000m
param *.playgroundSizeY 25000m
param *.playgroundSizeZ 50m
param *.world.use2D false
param *.world.useTorus false

vector 0  scenario.node[0].appl  distance  ETV
vector 1  scenario.node[0].appl  relativeSpeed  ETV
vector 2  scenario.node[0].appl  nodeId  ETV
vector 6  scenario.node[0].appl  acceleration  ETV
vector 7  scenario.node[0].appl  controllerAcceleration  ETV
vector 3  scenario.node[0].appl  speed  ETV
vector 4  scenario.node[0].appl  posx  ETV
vector 5  scenario.node[0].appl  posy  ETV
vector 22  scenario.node[1].appl  distance  ETV
vector 23  scenario.node[1].appl  relativeSpeed  ETV
vector 24  scenario.node[1].appl  nodeId  ETV
vector 28  scenario.node[1].appl  acceleration  ETV
vector 29  scenario.node[1].appl  controllerAcceleration  ETV
vector 25  scenario.node[1].appl  speed  ETV
vector 26  scenario.node[1].appl  posx  ETV
vector 27  scenario.node[1].appl  posy  ETV
vector 44  scenario.node[2].appl  distance  ETV
vector 45  scenario.node[2].appl  relativeSpeed  ETV
vector 46  scenario.node[2].appl  nodeId  ETV
vector 50  scenario.node[2].appl  acceleration  ETV
vector 51  scenario.node[2].appl  controllerAcceleration  ETV
vector 47  scenario.node[2].appl  speed  ETV
vector 48  scenario.node[2].appl  posx  ETV
vector 49  scenario.node[2].appl  posy  ETV
vector 66  scenario.node[3].appl  distance  ETV
vector 67  scenario.node[3].appl  relativeSpeed  ETV
vector 68  scenario.node[3].appl  nodeId  ETV
vector 72  scenario.node[3].appl  acceleration  ETV
vector 73  scenario.node[3].appl  controllerAcceleration  ETV
vector 69  scenario.node[3].appl  speed  ETV
vector 70  scenario.node[3].appl  posx  ETV
vector 71  scenario.node[3].appl  posy  ETV
vector 88  scenario.node[4].appl  distance  ETV
vector 89  scenario.node[4].appl  relativeSpeed  ETV
vector 90  scenario.node[4].appl  nodeId  ETV
vector 94  scenario.node[4].appl  acceleration  ETV
vector 95  scenario.node[4].appl  controllerAcceleration  ETV
vector 91  scenario.node[4].appl  speed  ETV
vector 92  scenario.node[4].appl  posx  ETV
vector 93  scenario.node[4].appl  posy  ETV
vector 110  scenario.node[5].appl  distance  ETV
vector 111  scenario.node[5].appl  relativeSpeed  ETV
vector 112  scenario.node[5].appl  nodeId  ETV
vector 116  scenario.node[5].appl  acceleration  ETV
vector 117  scenario.node[5].appl  controllerAcceleration  ETV
vector 113  scenario.node[5].appl  speed  ETV
vector 114  scenario.node[5].appl  posx  ETV
vector 115  scenario.node[5].appl  posy  ETV
vector 132  scenario.node[6].appl  distance  ETV
vector 133  scenario.node[6].appl  relativeSpeed  ETV
vector 134  scenario.node[6].appl  nodeId  ETV
vector 138  scenario.node[6].appl  acceleration  ETV
vector 139  scenario.node[6].appl  controllerAcceleration  ETV
vector 135  scenario.node[6].appl  speed  ETV
vector 136  scenario.node[6].appl  posx  ETV
vector 137  scenario.node[6].appl  posy  ETV
vector 154  scenario.node[7].appl  distance  ETV
vector 155  scenario.node[7].appl  relativeSpeed  ETV
vector 156  scenario.node[7].appl  nodeId  ETV
vector 160  scenario.node[7].appl  acceleration  ETV
vector 161  scenario.node[7].appl  controllerAcceleration  ETV
vector 157  scenario.node[7].appl  speed  ETV
vector 158  scenario.node[7].appl  posx  ETV
vector 159  scenario.node[7].appl  posy  ETV
vector 102  scenario.node[4].prot  frontDelay  ETV
vector 100  scenario.node[4].prot  frontDelayId  ETV
vector 35  scenario.node[1].prot  leaderDelay  ETV
vector 33  scenario.node[1].prot  leaderDelayId  ETV
vector 36  scenario.node[1].prot  frontDelay  ETV
vector 34  scenario.node[1].prot  frontDelayId  ETV
vector 57  scenario.node[2].prot  leaderDelay  ETV
vector 55  scenario.node[2].prot  leaderDelayId  ETV
vector 79  scenario.node[3].prot  leaderDelay  ETV
vector 77  scenario.node[3].prot  leaderDelayId  ETV
vector 101  scenario.node[4].prot  leaderDelay  ETV
vector 99  scenario.node[4].prot  leaderDelayId  ETV
vector 123  scenario.node[5].prot  leaderDelay  ETV
vector 121  scenario.node[5].prot  leaderDelayId  ETV
vector 145  scenario.node[6].prot  leaderDelay  ETV
vector 143  scenario.node[6].prot  leaderDelayId  ETV
vector 167  scenario.node[7].prot  leaderDelay  ETV
vector 165  scenario.node[7].prot  leaderDelayId  ETV
vector 80  scenario.node[3].prot  frontDelay  ETV
vector 78  scenario.node[3].prot  frontDelayId  ETV
vector 146  scenario.node[6].prot  frontDelay  ETV
vector 144  scenario.node[6].prot  frontDelayId  ETV
vector 58  scenario.node[2].prot  frontDelay  ETV
vector 56  scenario.node[2].prot  frontDelayId  ETV
vector 124  scenario.node[5].prot  frontDelay  ETV
vector 122  scenario.node[5].prot  frontDelayId  ETV
vector 168  scenario.node[7].prot  frontDelay  ETV
vector 166  scenario.node[7].prot  frontDelayId  ETV
vector 8  scenario.node[0].prot  nodeId  ETV
vector 9  scenario.node[0].prot  busyTime  ETV
vector 10  scenario.node[0].prot  collisions  ETV
vector 30  scenario.node[1].prot  nodeId  ETV
vector 31  scenario.node[1].prot  busyTime  ETV
vector 32  scenario.node[1].prot  collisions  ETV
vector 52  scenario.node[2].prot  nodeId  ETV
vector 53  scenario.node[2].prot  busyTime  ETV
vector 54  scenario.node[2].prot  collisions  ETV
vector 74  scenario.node[3].prot  nodeId  ETV
vector 75  scenario.node[3].prot  busyTime  ETV
vector 76  scenario.node[3].prot  collisions  ETV
vector 96  scenario.node[4].prot  nodeId  ETV
vector 97  scenario.node[4].prot  busyTime  ETV
vector 98  scenario.node[4].prot  collisions  ETV
vector 118  scenario.node[5].prot  nodeId  ETV
vector 119  scenario.node[5].prot  busyTime  ETV
vector 120  scenario.node[5].prot  collisions  ETV
vector 140  scenario.node[6].prot  nodeId  ETV
vector 141  scenario.node[6].prot  busyTime  ETV
vector 142  scenario.node[6].prot  collisions  ETV
vector 162  scenario.node[7].prot  nodeId  ETV
vector 163  scenario.node[7].prot  busyTime  ETV
vector 164  scenario.node[7].prot  collisions  ETV
7	11235 13855 232 328174 1.11 59.91 589 -1.5 1.5 -14.445957496355 993.24092342393
6	25090 18568 232 328174 1.11 59.91 589 -1.4722746795719 1.4513434175793 -12.507252200722 675.29835178084
5	43658 12081 232 328174 1.11 59.91 589 36.55 36.55 21527.95 786846.5725
4	55739 17903 232 328174 1.11 59.91 589 163.99741439846 1474.9802117629 483498.67955556 481304683.60391
3	73642 17918 232 328174 1.11 59.91 589 20.932410304178 24.18693697487 13131.616571188 293209.28872176
1	91560 9725 232 328174 1.11 59.91 589 0 0 0 0
0	101285 10314 232 328174 1.11 59.91 589 -1 -1 -589 589
2	111599 9725 232 328174 1.11 59.91 589 0 0 0 0
10	121324 859 5234 328728 2 60 59 0 0 0 0
9	122183 1155 5234 328728 2 60 59 0.023625 0.02625 1.546125 0.040523765625
8	123338 800 5234 328728 2 60 59 0 0 0 0
29	124138 19066 233 328175 1.11 59.91 589 -1.5034793456033 1.5024511546076 -15.50570057847 989.15336677983
28	143204 19174 233 328175 1.11 59.91 589 -1.4807765142496 1.4557932576597 -12.221036960191 676.42621439488
27	162378 12670 233 328175 1.11 59.91 589 36.55 36.55 21527.95 786846.5725
26	175048 18484 233 328175 1.11 59.91 589 147.49742202759 1458.5447886838 473780.81323927 465510762.49683
25	193532 18499 233 328175 1.11 59.91 589 20.931730223187 24.193573515154 13132.273285161 293239.43156271
23	212031 20070 233 328175 1.11 59.91 589 -0.064317370952516 0.06203632106115 -0.53164145161053 1.2272975000903
22	232101 18502 233 328175 1.11 59.91 589 12.416222754864 12.59346489387 7361.879450571 92016.970497582
24	250603 10314 233 328175 1.11 59.91 589 1 1 589 589
36	260917 23708 964 328350 1.24182365114 59.941815387713 588 0.099999209348 0.100012212805 58.799990947409 5.8799981950449
35	284625 23708 964 328350 1.24182365114 59.941815387713 588 0.099999209348 0.100012212805 58.799990947409 5.8799981950449
34	308333 16118 964 328350 1.24182365114 59.941815387713 588 1 1 588 588
33	324451 16118 964 328350 1.24182365114 59.941815387713 588 1 1 588 588
32	340569 859 5235 328729 2 60 59 0 0 0 0
31	341428 1214 5235 328729 2 60 59 0.023625 0.02625 1.546125 0.040523765625
30	342642 859 5235 328729 2 60 59 1 1 59 59
51	343501 19082 234 328176 1.11 59.91 589 -1.516929165043 1.5151528980174 -15.601262460369 999.48201699747
50	362583 19138 234 328176 1.11 59.91 589 -1.4744691962857 1.4486483719786 -12.050516396402 671.79687322565
49	381721 12670 234 328176 1.11 59.91 589 36.55 36.55 21527.95 786846.5725
48	394391 18492 234 328176 1.11 59.91 589 130.99742202759 1442.0664118809 464062.60685762 450037210.35996
47	412883 18510 234 328176 1.11 59.91 589 20.93425142909 24.186921768745 13132.495823462 293246.14569013
45	431393 20306 234 328176 1.11 59.91 589 -0.018683373719625 0.016164902810985 -0.10032793110218 0.06385331645321
44	451699 18485 234 328176 1.11 59.91 589 12.46778397473 12.543059378687 7362.2108324114 92024.201899465
46	470184 10314 234 328176 1.11 59.91 589 2 2 1178 2356
58	480498 23702 1176 328562 1.281933146482 59.981937882646 588 0.099999209341 0.100012212583 58.800003947 5.8800007951115
57	504200 23691 970 328356 1.241823706178 59.941815442677 588 0.099999209348 0.10001221281 58.799990947335 5.8799981950301
56	527891 16113 1176 328562 1.281933146482 59.981937882646 588 2 2 1176 2352
55	544004 16106 970 328356 1.241823706178 59.941815442677 588 2 2 1176 2352
54	560110 859 5236 328730 2 60 59 0 0 0 0
53	560969 1214 5236 328730 2 60 59 0.023625 0.02625 1.546125 0.040523765625
52	562183 859 5236 328730 2 60 59 2 2 118 236
73	563042 19086 235 328177 1.11 59.91 589 -1.4985212074032 1.4980940507843 -15.551117860771 975.17533068129
72	582128 19170 235 328177 1.11 59.91 589 -1.4637937992649 1.4376572659867 -11.863330931058 661.19219139752
71	601298 12670 235 328177 1.11 59.91 589 36.55 36.55 21527.95 786846.5725
70	613968 18491 235 328177 1.11 59.91 589 114.49742202759 1425.5785656292 454344.38326603 434884558.77446
69	632459 18504 235 328177 1.11 59.91 589 20.943734391264 24.176667417302 13132.624166703 293245.15174453
67	650963 20490 235 328177 1.11 59.91 589 -0.015548644181926 0.013756988793727 -0.0078380772973397 0.032310832884824
66	671453 18487 235 328177 1.11 59.91 589 12.473851962657 12.538741264835 7362.2261584631 92024.517951874
68	689940 10314 235 328177 1.11 59.91 589 3 3 1767 5301
80	700254 23684 1040 328426 1.262750761216 59.962755497671 588 0.099999209347 0.100012212662 58.800003947291 5.8800007951698
79	723938 23717 976 328362 1.241823761216 59.941815497673 588 0.099999209346 0.100012212816 58.799990947293 5.8799981950216
78	747655 16100 1040 328426 1.262750761216 59.962755497671 588 3 3 1764 5292
77	763755 16124 976 328362 1.241823761216 59.941815497673 588 3 3 1764 5292
76	779879 859 5237 328731 2 60 59 0 0 0 0
75	780738 1214 5237 328731 2 60 59 0.023625 0.02625 1.546125 0.040523765625
74	781952 859 5237 328731 2 60 59 3 3 177 531
95	782811 19030 236 328178 1.11 59.91 589 -1.4920639027949 1.4922979664914 -15.604504539812 959.38421614838
94	801841 19147 236 328178 1.11 59.91 589 -1.460697964573 1.43365120277 -11.628327893182 657.77645920417
93	820988 12670 236 328178 1.11 59.91 589 36.55 36.55 21527.95 786846.5725
92	833658 18488 236 328178 1.11 59.91 589 97.997422027588 1409.1087949508 444626.13644247 420052761.51786
91	852146 18493 236 328178 1.11 59.91 589 20.948198243487 24.174058750505 13132.935160388 293256.72140905
89	870639 20182 236 328178 1.11 59.91 589 -0.026253904533323 0.025337575609328 -0.19236037585176 0.19499445503519
88	890821 18475 236 328178 1.11 59.91 589 12.458080516799 12.554501291554 7362.2530434306 92025.406929905
90	909296 10314 236 328178 1.11 59.91 589 4 4 2356 9424
102	919610 24280 904 328284 1.240526486026 59.940531223048 588 0.099999209335 0.100012212835 58.800003947858 5.8800007952832
101	943890 24283 982 328368 1.241823816254 59.941815552607 588 0.099999209347 0.100012212822 58.799990947189 5.8799981950009
100	968173 16698 904 328284 1.240526486026 59.940531223048 588 4 4 2352 9408
99	984871 16100 982 328368 1.241823816254 59.941815552607 588 4 4 2352 9408
98	1000971 859 5238 328732 2 60 59 0 0 0 0
97	1001830 1214 5238 328732 2 60 59 0.023625 0.02625 1.546125 0.040523765625
96	1003044 859 5238 328732 2 60 59 4 4 236 944
117	1003903 19659 237 328179 1.11 59.91 589 -1.4980277564617 1.4988827421564 -15.564517161585 972.70727575165
116	1023562 19750 237 328179 1.11 59.91 589 -1.4539402890101 1.428655986064 -11.691096745285 653.61597910875
115	1043312 13259 237 328179 1.11 59.91 589 36.55 36.55 21527.95 786846.5725
114	1056571 19085 237 328179 1.11 59.91 589 81.497422027588 1392.5922346552 434908.02414402 405541652.18503
113	1075656 19077 237 328179 1.11 59.91 589 20.951244221012 24.166245491747 13132.767062778 293246.55631579
111	1094733 20711 237 328179 1.11 59.91 589 -0.034429575060258 0.035220547821869 0.28438088898542 0.36851191155126
110	1115444 19083 237 328179 1.11 59.91 589 12.477489338825 12.529040697768 7362.108936498 92021.563907634
112	1134527 10903 237 328179 1.11 59.91 589 5 5 2945 14725
124	1145430 24280 1242 328628 1.287403311596 59.987395047666 588 0.099999209336 0.100012212834 58.800003946906 5.8800007950928
123	1169710 24275 988 328374 1.241823871292 59.941815607701 588 0.099999209345 0.100012212821 58.799990947245 5.879998195012
122	1193985 16710 1242 328628 1.287403311596 59.987395047666 588 5 5 2940 14700
121	1210695 16698 988 328374 1.241823871292 59.941815607701 588 5 5 2940 14700
120	1227393 918 5239 328733 2 60 59 0 0 0 0
119	1228311 1273 5239 328733 2 60 59 0.023625 0.02625 1.546125 0.040523765625
118	1229584 918 5239 328733 2 60 59 5 5 295 1475
139	1230502 19653 238 328180 1.11 59.91 589 -1.4889617801947 1.4892820886039 -15.439940361555 953.20495856104
138	1250155 19728 238 328180 1.11 59.91 589 -1.4484613737679 1.4236625955395 -11.653682156776 647.40831788288
137	1269883 13259 238 328180 1.11 59.91 589 36.55 36.55 21527.95 786846.5725
136	1283142 19097 238 328180 1.11 59.91 589 64.997422027588 1376.0878587113 425189.84304034 391351300.51035
135	1302239 19082 238 328180 1.11 59.91 589 20.957496955356 24.157796193557 13132.724580416 293240.85225778
133	1321321 20780 238 328180 1.11 59.91 589 -0.018955503752171 0.019374167398293 0.15939332952138 0.10920743731861
132	1342101 19080 238 328180 1.11 59.91 589 12.489891237764 12.515069131097 7362.1802540298 92023.273742751
134	1361181 10903 238 328180 1.11 59.91 589 6 6 3534 21204
146	1372084 24284 1106 328486 1.26671292633 59.966704662751 588 0.099999209343 0.100012212872 58.799990947257 5.8799981950145
145	1396368 24285 994 328380 1.24182392633 59.941815662754 588 0.099999209343 0.100012212824 58.79999094726 5.8799981950151
144	1420653 16701 1106 328486 1.26671292633 59.966704662751 588 6 6 3528 21168
143	1437354 16701 994 328380 1.24182392633 59.941815662754 588 6 6 3528 21168
142	1454055 918 5240 328734 2 60 59 0 0 0 0
141	1454973 1273 5240 328734 2 60 59 0.023625 0.02625 1.546125 0.040523765625
140	1456246 918 5240 328734 2 60 59 6 6 354 2124
161	1457164 19669 239 328181 1.11 59.91 589 -1.4963534236973 1.4966188725409 -15.491097698464 972.37447573354
160	1476833 19738 239 328181 1.11 59.91 589 -1.4517793498136 1.4282120475603 -11.787754578995 653.87841379945
159	1496571 13259 239 328181 1.11 59.91 589 36.55 36.55 21527.95 786846.5725
158	1509830 19089 239 328181 1.11 59.91 589 48.497422027588 1359.5788723675 415471.73463489 377481514.73948
157	1528919 19085 239 328181 1.11 59.91 589 20.950693708501 24.162173893203 13132.62982262 293240.4932536
155	1548004 20717 239 328181 1.11 59.91 589 -0.031900536950968 0.034536315182024 0.21129461766068 0.27929141539283
154	1568721 19070 239 328181 1.11 59.91 589 12.477560312638 12.522935502444 7362.1065102928 92021.473631317
156	1587791 10903 239 328181 1.11 59.91 589 7 7 4123 28861
168	1598694 24272 1308 328694 1.289467421672 59.989472157789 588 0.099999209337 0.100012212477 58.800003946953 5.8800007951021
167	1622966 24292 1000 328386 1.241823981369 59.941815717823 588 0.099999209344 0.10001221282 58.79999094729 5.8799981950211
166	1647258 16704 1308 328694 1.289467421672 59.989472157789 588 7 7 4116 28812
165	1663962 16702 1000 328386 1.241823981369 59.941815717823 588 7 7 4116 28812
164	1680664 918 5241 328735 2 60 59 0 0 0 0
163	1681582 1273 5241 328735 2 60 59 0.023625 0.02625 1.546125 0.040523765625
162	1682855 918 5241 328735 2 60 59 7 7 413 2891
