file 1683570 1501512337                                         
version 2
run SinusoidalNoAttack-9-20170731-16:45:06-5875
attr CACCSpacing 5
attr attackAcc -30
attr attackPos 7
attr attackSpeed 150
attr attackStart 30
attr attacker 0
attr beaconInterval 0.1
attr configname SinusoidalNoAttack
attr controller 1
attr datetime 20170731-16:45:06
attr experiment SinusoidalNoAttack
attr fakeAcc "(0 == 4)"
attr fakePos "(0 == 2)"
attr fakeSpeed "(0 == 3)"
attr inifile omnetpp_9.ini
attr iterationvars "$controller=1, $sController=\"CACC\", $CACCSpacing=5, $leaderSpeed=80, $attacker=0, $attackStart=30, $attackSpeed=150, $attackPos=7, $attackAcc=-30, $0=5, $1=0, $nCars=8, $platoonSize=8, $nLanes=1, $beaconInterval=0.1, $priority=2, $packetSize=200, $ploegH=0.5, $leaderHeadway=1.2, $fakeSpeed=(0 == 3), $fakeAcc=(0 == 4), $fakePos=(0 == 2)"
attr iterationvarsf controller=1,sController=CACC,CACCSpacing=5,leaderSpeed=80,attacker=0,attackStart=30,attackSpeed=150,attackPos=7,attackAcc=-30,5,0,nCars=8,platoonSize=8,nLanes=1,beaconInterval=0.1,priority=2,packetSize=200,ploegH=0.5,leaderHeadway=1.2,fakeSpeed=(0_==_3),fakeAcc=(0_==_4),fakePos=(0_==_2)-
attr leaderHeadway 1.2
attr leaderSpeed 80
attr measurement "$controller=1, $sController=\"CACC\", $CACCSpacing=5, $leaderSpeed=80, $attacker=0, $attackStart=30, $attackSpeed=150, $attackPos=7, $attackAcc=-30, $0=5, $1=0, $nCars=8, $platoonSize=8, $nLanes=1, $beaconInterval=0.1, $priority=2, $packetSize=200, $ploegH=0.5, $leaderHeadway=1.2, $fakeSpeed=(0 == 3), $fakeAcc=(0 == 4), $fakePos=(0 == 2)"
attr nCars 8
attr nLanes 1
attr network scenario
attr packetSize 200
attr platoonSize 8
attr ploegH 0.5
attr priority 2
attr processid 5875
attr repetition 4
attr replication #4
attr resultdir results
attr runnumber 9
attr sController "\"CACC\""
attr seedset 4
param **.coreDebug false
param **.debug false
param **.headway 0.1s
param **.numberOfCars 8
param **.numberOfCarsPerPlatoon 8
param **.numberOfLanes 1
param **.numericController 1
param **.traffic.nCars 8
param **.traffic.nLanes 1
param **.traffic.platoonInsertDistance 5m
param **.traffic.platoonInsertHeadway 0s
param **.traffic.platoonInsertSpeed 80kmph
param **.traffic.platoonInsertTime "1 s"
param **.traffic.platoonLeaderHeadway 1.2s
param **.traffic.platoonSize 8
param **.traffic.platooningVType "\"vtypeauto\""
param **.traffic_type "\"PlatoonsTrafficManager\""
param *.**.nic.mac1609_4.bitrate 6Mbps
param *.**.nic.mac1609_4.txPower 100mW
param *.**.nic.mac1609_4.useServiceChannel false
param *.**.nic.phy80211p.analogueModels "xmldoc(\"config.xml\")"
param *.**.nic.phy80211p.decider "xmldoc(\"config.xml\")"
param *.**.nic.phy80211p.maxTXPower 100mW
param *.**.nic.phy80211p.sensitivity -94dBm
param *.**.nic.phy80211p.thermalNoise -95dBm
param *.**.nic.phy80211p.usePropagationDelay true
param *.**.nic.phy80211p.useThermalNoise true
param *.annotations.draw false
param *.connectionManager.alpha 2.0
param *.connectionManager.carrierFrequency "5.890e9 Hz"
param *.connectionManager.pMax 100mW
param *.connectionManager.sat -94dBm
param *.connectionManager.sendDirect true
param *.manager.autoShutdown true
param *.manager.commandLine "\"sumo --remote-port $port --seed $seed --configuration-file $configFile\""
param *.manager.configFile "\"./sumocfg/freeway.sumo.cfg\""
param *.manager.host "\"localhost\""
param *.manager.margin 25
param *.manager.moduleDisplayString "\"\""
param *.manager.moduleName "\"node\""
param *.manager.moduleType "\"Car\""
param *.manager.updateInterval 0.01s
param *.node[*].appl.attackStart 30s
param *.node[*].appl.attackerType 0
param *.node[*].appl.simulationDuration "60 s"
param *.node[*].appl_type "\"SimplePlatooningApp\""
param *.node[*].helper.nCars 8
param *.node[*].helper.nLanes 1
param *.node[*].helper.platoonSize 8
param *.node[*].helper_type "\"PositionHelper\""
param *.node[*].mobility.x 0
param *.node[*].mobility.y 0
param *.node[*].mobility.z 1.895
param *.node[*].prot.attackStart 30s
param *.node[*].prot.attackerType 0
param *.node[*].prot.attackingNode 3
param *.node[*].prot.beaconingInterval 0.1s
param *.node[*].prot.fakeAcc "(0 == 4)"
param *.node[*].prot.fakePos "(0 == 2)"
param *.node[*].prot.fakeSpeed "(0 == 3)"
param *.node[*].prot.maliciousAcc "-30 mpss"
param *.node[*].prot.maliciousSpeed 150kmph
param *.node[*].prot.packetSize 200
param *.node[*].prot.priority 2
param *.node[*].prot.shiftX "7 m"
param *.node[*].prot.useControllerAcceleration true
param *.node[*].protocol_type "\"SimplePlatooningBeaconing\""
param *.node[*].scenario.accHeadway 0.1s
param *.node[*].scenario.caccC1 0.5
param *.node[*].scenario.caccOmegaN "0.2 Hz"
param *.node[*].scenario.caccSpacing 5m
param *.node[*].scenario.caccXi 1
param *.node[*].scenario.controller "\"CACC\""
param *.node[*].scenario.engineTau "0.5 s"
param *.node[*].scenario.leaderHeadway 1.2s
param *.node[*].scenario.leaderOscillationFrequency "0.2 Hz"
param *.node[*].scenario.leaderSpeed 80kmph
param *.node[*].scenario.oscillationAmplitude "10 kmph"
param *.node[*].scenario.ploegH 0.5s
param *.node[*].scenario.ploegKd 0.7
param *.node[*].scenario.ploegKp 0.2
param *.node[*].scenario.startOscillating "5 s"
param *.node[*].scenario.useRealisticEngine false
param *.node[*].scenario_type "\"SinusoidalScenario\""
param *.node[*].unicast.packetLossRate 0
param *.obstacles.debug false
param *.playgroundSizeX 65000m
param *.playgroundSizeY 25000m
param *.playgroundSizeZ 50m
param *.world.use2D false
param *.world.useTorus false

vector 0  scenario.node[0].appl  distance  ETV
vector 1  scenario.node[0].appl  relativeSpeed  ETV
vector 2  scenario.node[0].appl  nodeId  ETV
vector 6  scenario.node[0].appl  acceleration  ETV
vector 7  scenario.node[0].appl  controllerAcceleration  ETV
vector 3  scenario.node[0].appl  speed  ETV
vector 4  scenario.node[0].appl  posx  ETV
vector 5  scenario.node[0].appl  posy  ETV
vector 22  scenario.node[1].appl  distance  ETV
vector 23  scenario.node[1].appl  relativeSpeed  ETV
vector 24  scenario.node[1].appl  nodeId  ETV
vector 28  scenario.node[1].appl  acceleration  ETV
vector 29  scenario.node[1].appl  controllerAcceleration  ETV
vector 25  scenario.node[1].appl  speed  ETV
vector 26  scenario.node[1].appl  posx  ETV
vector 27  scenario.node[1].appl  posy  ETV
vector 44  scenario.node[2].appl  distance  ETV
vector 45  scenario.node[2].appl  relativeSpeed  ETV
vector 46  scenario.node[2].appl  nodeId  ETV
vector 50  scenario.node[2].appl  acceleration  ETV
vector 51  scenario.node[2].appl  controllerAcceleration  ETV
vector 47  scenario.node[2].appl  speed  ETV
vector 48  scenario.node[2].appl  posx  ETV
vector 49  scenario.node[2].appl  posy  ETV
vector 66  scenario.node[3].appl  distance  ETV
vector 67  scenario.node[3].appl  relativeSpeed  ETV
vector 68  scenario.node[3].appl  nodeId  ETV
vector 72  scenario.node[3].appl  acceleration  ETV
vector 73  scenario.node[3].appl  controllerAcceleration  ETV
vector 69  scenario.node[3].appl  speed  ETV
vector 70  scenario.node[3].appl  posx  ETV
vector 71  scenario.node[3].appl  posy  ETV
vector 88  scenario.node[4].appl  distance  ETV
vector 89  scenario.node[4].appl  relativeSpeed  ETV
vector 90  scenario.node[4].appl  nodeId  ETV
vector 94  scenario.node[4].appl  acceleration  ETV
vector 95  scenario.node[4].appl  controllerAcceleration  ETV
vector 91  scenario.node[4].appl  speed  ETV
vector 92  scenario.node[4].appl  posx  ETV
vector 93  scenario.node[4].appl  posy  ETV
vector 110  scenario.node[5].appl  distance  ETV
vector 111  scenario.node[5].appl  relativeSpeed  ETV
vector 112  scenario.node[5].appl  nodeId  ETV
vector 116  scenario.node[5].appl  acceleration  ETV
vector 117  scenario.node[5].appl  controllerAcceleration  ETV
vector 113  scenario.node[5].appl  speed  ETV
vector 114  scenario.node[5].appl  posx  ETV
vector 115  scenario.node[5].appl  posy  ETV
vector 132  scenario.node[6].appl  distance  ETV
vector 133  scenario.node[6].appl  relativeSpeed  ETV
vector 134  scenario.node[6].appl  nodeId  ETV
vector 138  scenario.node[6].appl  acceleration  ETV
vector 139  scenario.node[6].appl  controllerAcceleration  ETV
vector 135  scenario.node[6].appl  speed  ETV
vector 136  scenario.node[6].appl  posx  ETV
vector 137  scenario.node[6].appl  posy  ETV
vector 154  scenario.node[7].appl  distance  ETV
vector 155  scenario.node[7].appl  relativeSpeed  ETV
vector 156  scenario.node[7].appl  nodeId  ETV
vector 160  scenario.node[7].appl  acceleration  ETV
vector 161  scenario.node[7].appl  controllerAcceleration  ETV
vector 157  scenario.node[7].appl  speed  ETV
vector 158  scenario.node[7].appl  posx  ETV
vector 159  scenario.node[7].appl  posy  ETV
vector 102  scenario.node[4].prot  frontDelay  ETV
vector 100  scenario.node[4].prot  frontDelayId  ETV
vector 35  scenario.node[1].prot  leaderDelay  ETV
vector 33  scenario.node[1].prot  leaderDelayId  ETV
vector 36  scenario.node[1].prot  frontDelay  ETV
vector 34  scenario.node[1].prot  frontDelayId  ETV
vector 57  scenario.node[2].prot  leaderDelay  ETV
vector 55  scenario.node[2].prot  leaderDelayId  ETV
vector 79  scenario.node[3].prot  leaderDelay  ETV
vector 77  scenario.node[3].prot  leaderDelayId  ETV
vector 101  scenario.node[4].prot  leaderDelay  ETV
vector 99  scenario.node[4].prot  leaderDelayId  ETV
vector 123  scenario.node[5].prot  leaderDelay  ETV
vector 121  scenario.node[5].prot  leaderDelayId  ETV
vector 145  scenario.node[6].prot  leaderDelay  ETV
vector 143  scenario.node[6].prot  leaderDelayId  ETV
vector 167  scenario.node[7].prot  leaderDelay  ETV
vector 165  scenario.node[7].prot  leaderDelayId  ETV
vector 80  scenario.node[3].prot  frontDelay  ETV
vector 78  scenario.node[3].prot  frontDelayId  ETV
vector 146  scenario.node[6].prot  frontDelay  ETV
vector 144  scenario.node[6].prot  frontDelayId  ETV
vector 58  scenario.node[2].prot  frontDelay  ETV
vector 56  scenario.node[2].prot  frontDelayId  ETV
vector 124  scenario.node[5].prot  frontDelay  ETV
vector 122  scenario.node[5].prot  frontDelayId  ETV
vector 168  scenario.node[7].prot  frontDelay  ETV
vector 166  scenario.node[7].prot  frontDelayId  ETV
vector 8  scenario.node[0].prot  nodeId  ETV
vector 9  scenario.node[0].prot  busyTime  ETV
vector 10  scenario.node[0].prot  collisions  ETV
vector 30  scenario.node[1].prot  nodeId  ETV
vector 31  scenario.node[1].prot  busyTime  ETV
vector 32  scenario.node[1].prot  collisions  ETV
vector 52  scenario.node[2].prot  nodeId  ETV
vector 53  scenario.node[2].prot  busyTime  ETV
vector 54  scenario.node[2].prot  collisions  ETV
vector 74  scenario.node[3].prot  nodeId  ETV
vector 75  scenario.node[3].prot  busyTime  ETV
vector 76  scenario.node[3].prot  collisions  ETV
vector 96  scenario.node[4].prot  nodeId  ETV
vector 97  scenario.node[4].prot  busyTime  ETV
vector 98  scenario.node[4].prot  collisions  ETV
vector 118  scenario.node[5].prot  nodeId  ETV
vector 119  scenario.node[5].prot  busyTime  ETV
vector 120  scenario.node[5].prot  collisions  ETV
vector 140  scenario.node[6].prot  nodeId  ETV
vector 141  scenario.node[6].prot  busyTime  ETV
vector 142  scenario.node[6].prot  collisions  ETV
vector 162  scenario.node[7].prot  nodeId  ETV
vector 163  scenario.node[7].prot  busyTime  ETV
vector 164  scenario.node[7].prot  collisions  ETV
7	11203 13855 232 328174 1.11 59.91 589 -1.5 1.5 -14.445957496355 993.24092342393
6	25058 18568 232 328174 1.11 59.91 589 -1.4722746795719 1.4513434175793 -12.507252200722 675.29835178084
5	43626 12081 232 328174 1.11 59.91 589 36.55 36.55 21527.95 786846.5725
4	55707 17901 232 328174 1.11 59.91 589 111.49742202785 1422.4802193923 452576.18404927 432160760.40634
3	73608 17918 232 328174 1.11 59.91 589 20.932410304178 24.18693697487 13131.616571188 293209.28872176
1	91526 9725 232 328174 1.11 59.91 589 0 0 0 0
0	101251 10314 232 328174 1.11 59.91 589 -1 -1 -589 589
2	111565 9725 232 328174 1.11 59.91 589 0 0 0 0
10	121290 859 5234 328728 2 60 59 0 0 0 0
9	122149 1155 5234 328728 2 60 59 0.023625 0.02625 1.546125 0.040523765625
8	123304 800 5234 328728 2 60 59 0 0 0 0
29	124104 19037 233 328175 1.11 59.91 589 -1.503479394931 1.5024511414921 -15.505700591393 989.15336805583
28	143141 19133 233 328175 1.11 59.91 589 -1.4807765621246 1.4557932509529 -12.221036955427 676.42621575319
27	162274 12670 233 328175 1.11 59.91 589 36.55 36.55 21527.95 786846.5725
26	174944 18495 233 328175 1.11 59.91 589 102.49742202759 1413.5447963116 447275.81696443 424063220.7149
25	193439 18502 233 328175 1.11 59.91 589 20.931730249294 24.193574101929 13132.273361439 293239.43499766
23	211941 20066 233 328175 1.11 59.91 589 -0.064317890257175 0.062036125108584 -0.53171772931942 1.2272975889789
22	232007 18506 233 328175 1.11 59.91 589 4.9162244594835 5.0934698182415 2944.3802206539 14720.03644823
24	250513 10314 233 328175 1.11 59.91 589 1 1 589 589
36	260827 23714 964 328350 1.241822900623 59.941816563758 588 0.099998658966 0.100011662497 58.799992323592 5.8799984738238
35	284541 23714 964 328350 1.241822900623 59.941816563758 588 0.099998658966 0.100011662497 58.799992323592 5.8799984738238
34	308255 16129 964 328350 1.241822900623 59.941816563758 588 1 1 588 588
33	324384 16129 964 328350 1.241822900623 59.941816563758 588 1 1 588 588
32	340513 859 5235 328729 2 60 59 0 0 0 0
31	341372 1214 5235 328729 2 60 59 0.023625 0.02625 1.546125 0.040523765625
30	342586 859 5235 328729 2 60 59 1 1 59 59
51	343445 19049 234 328176 1.11 59.91 589 -1.516929185042 1.5151528885074 -15.601262453539 999.48201836969
50	362494 19143 234 328176 1.11 59.91 589 -1.4744692109936 1.4486483618931 -12.050516389108 671.79687457604
49	381637 12670 234 328176 1.11 59.91 589 36.55 36.55 21527.95 786846.5725
48	394307 18502 234 328176 1.11 59.91 589 93.497422027588 1404.5664195052 441975.11039286 416060802.2761
47	412809 18499 234 328176 1.11 59.91 589 20.934251523969 24.18692224397 13132.495899706 293246.14911546
45	431308 20288 234 328176 1.11 59.91 589 -0.018683347106741 0.016164851880784 -0.10032789716945 0.063853360905852
44	451596 18481 234 328176 1.11 59.91 589 4.9677845422603 5.0430603127222 2944.7110223349 14722.291312882
46	470077 10314 234 328176 1.11 59.91 589 2 2 1178 2356
58	480391 23711 1176 328562 1.28193217081 59.981938833536 588 0.099998658959 0.100011662521 58.800005323183 5.8800010738762
57	504102 23703 970 328356 1.241822930644 59.941816593705 588 0.099998658967 0.100011662495 58.799992323518 5.879998473809
56	527805 16126 1176 328562 1.28193217081 59.981938833536 588 2 2 1176 2352
55	543931 16115 970 328356 1.241822930644 59.941816593705 588 2 2 1176 2352
54	560046 859 5236 328730 2 60 59 0 0 0 0
53	560905 1214 5236 328730 2 60 59 0.023625 0.02625 1.546125 0.040523765625
52	562119 859 5236 328730 2 60 59 2 2 118 236
73	562978 19063 235 328177 1.11 59.91 589 -1.4985212030992 1.4980940903399 -15.551117845458 975.17533166359
72	582041 19179 235 328177 1.11 59.91 589 -1.4637937897145 1.4376572531077 -11.863330914728 661.19219235146
71	601220 12670 235 328177 1.11 59.91 589 36.55 36.55 21527.95 786846.5725
70	613890 18501 235 328177 1.11 59.91 589 84.497422027588 1395.5785732467 436674.38661104 408154001.71628
69	632391 18486 235 328177 1.11 59.91 589 20.943734527902 24.176667779147 13132.624242878 293245.15515844
67	650877 20456 235 328177 1.11 59.91 589 -0.015548588398847 0.013757111258105 -0.0078380084361349 0.032310863282438
66	671333 18490 235 328177 1.11 59.91 589 4.9738526204046 5.0387419535248 2944.726348681 14722.377477248
68	689823 10314 235 328177 1.11 59.91 589 3 3 1767 5301
80	700137 23702 1040 328426 1.262749960665 59.962756623682 588 0.099998658965 0.100011662364 58.800005323474 5.8800010739344
79	723839 23695 976 328362 1.241822960664 59.941816623684 588 0.099998658964 0.100011662496 58.799992323477 5.8799984738008
78	747534 16116 1040 328426 1.262749960665 59.962756623682 588 3 3 1764 5292
77	763650 16113 976 328362 1.241822960664 59.941816623684 588 3 3 1764 5292
76	779763 859 5237 328731 2 60 59 0 0 0 0
75	780622 1214 5237 328731 2 60 59 0.023625 0.02625 1.546125 0.040523765625
74	781836 859 5237 328731 2 60 59 3 3 177 531
95	782695 19048 236 328178 1.11 59.91 589 -1.4920639058887 1.4922980129789 -15.604504510217 959.38421668987
94	801743 19162 236 328178 1.11 59.91 589 -1.4606979411507 1.4336511931091 -11.628327861426 657.77645972814
93	820905 12670 236 328178 1.11 59.91 589 36.55 36.55 21527.95 786846.5725
92	833575 18486 236 328178 1.11 59.91 589 75.497422027588 1386.6088025556 431373.63959774 400342772.31014
91	852061 18494 236 328178 1.11 59.91 589 20.948198420294 24.174059010551 13132.935236438 293256.72481005
89	870555 20159 236 328178 1.11 59.91 589 -0.026253897628639 0.025337547732956 -0.19236025072371 0.19499446161349
88	890714 18481 236 328178 1.11 59.91 589 4.9580812412112 5.0545017296576 2944.7532331666 14722.863175418
90	909195 10314 236 328178 1.11 59.91 589 4 4 2356 9424
102	919509 24274 904 328284 1.240525810561 59.940532474146 588 0.099998658953 0.100011662399 58.800005324042 5.880001074048
101	943783 24298 982 328368 1.241822990685 59.941816653601 588 0.099998658966 0.100011662493 58.799992323373 5.87999847378
100	968081 16699 904 328284 1.240525810561 59.940532474146 588 4 4 2352 9408
99	984780 16120 982 328368 1.241822990685 59.941816653601 588 4 4 2352 9408
98	1000900 859 5238 328732 2 60 59 0 0 0 0
97	1001759 1214 5238 328732 2 60 59 0.023625 0.02625 1.546125 0.040523765625
96	1002973 859 5238 328732 2 60 59 4 4 236 944
117	1003832 19654 237 328179 1.11 59.91 589 -1.4980277554271 1.4988827797859 -15.564517108607 972.70727596939
116	1023486 19724 237 328179 1.11 59.91 589 -1.4539402604996 1.4286559785422 -11.691096689153 653.61597930541
115	1043210 13259 237 328179 1.11 59.91 589 36.55 36.55 21527.95 786846.5725
114	1056469 19088 237 328179 1.11 59.91 589 66.497422027588 1377.5922422388 426073.02711032 392626941.87483
113	1075557 19093 237 328179 1.11 59.91 589 20.951244361834 24.16624567128 13132.767138617 293246.55970144
111	1094650 20673 237 328179 1.11 59.91 589 -0.034429565837065 0.03522062803173 0.28438109989379 0.3685119307088
110	1115323 19069 237 328179 1.11 59.91 589 4.9774898524362 5.0290411915205 2944.6091254612 14721.181749991
112	1134392 10903 237 328179 1.11 59.91 589 5 5 2945 14725
124	1145295 24269 1242 328628 1.287402260872 59.987395923503 588 0.099998658956 0.100011662332 58.800005323088 5.8800010738572
123	1169564 24295 988 328374 1.241823020706 59.941816683678 588 0.099998658963 0.100011662497 58.799992323429 5.8799984737912
122	1193859 16688 1242 328628 1.287402260872 59.987395923503 588 5 5 2940 14700
121	1210547 16714 988 328374 1.241823020706 59.941816683678 588 5 5 2940 14700
120	1227261 918 5239 328733 2 60 59 0 0 0 0
119	1228179 1273 5239 328733 2 60 59 0.023625 0.02625 1.546125 0.040523765625
118	1229452 918 5239 328733 2 60 59 5 5 295 1475
139	1230370 19640 238 328180 1.11 59.91 589 -1.4889617652229 1.4892821174073 -15.439940274891 953.20495857377
138	1250010 19729 238 328180 1.11 59.91 589 -1.4484613456254 1.423662586749 -11.653682065131 647.40831788446
137	1269739 13259 238 328180 1.11 59.91 589 36.55 36.55 21527.95 786846.5725
136	1282998 19092 238 328180 1.11 59.91 589 57.497422027588 1368.587866262 420772.34581881 385006589.25045
135	1302090 19079 238 328180 1.11 59.91 589 20.957497126001 24.157796313372 13132.724655927 293240.85562437
133	1321169 20734 238 328180 1.11 59.91 589 -0.018955475632605 0.019374231482733 0.15939365685268 0.10920744462903
132	1341903 19060 238 328180 1.11 59.91 589 4.9898918184826 5.0150694527435 2944.6804418612 14721.821810423
134	1360963 10903 238 328180 1.11 59.91 589 6 6 3534 21204
146	1371866 24299 1106 328486 1.266712050727 59.96670571371 588 0.099998658961 0.1000116625 58.79999232344 5.8799984737934
145	1396165 24299 994 328380 1.241823050727 59.941816713713 588 0.099998658961 0.100011662499 58.799992323443 5.879998473794
144	1420464 16715 1106 328486 1.266712050727 59.96670571371 588 6 6 3528 21168
143	1437179 16713 994 328380 1.241823050727 59.941816713713 588 6 6 3528 21168
142	1453892 918 5240 328734 2 60 59 0 0 0 0
141	1454810 1273 5240 328734 2 60 59 0.023625 0.02625 1.546125 0.040523765625
140	1456083 918 5240 328734 2 60 59 6 6 354 2124
161	1457001 19659 239 328181 1.11 59.91 589 -1.4963534198868 1.4966188932009 -15.49109756406 972.37447565498
160	1476660 19743 239 328181 1.11 59.91 589 -1.4517793252484 1.4282120404609 -11.787754437865 653.87841371191
159	1496403 13259 239 328181 1.11 59.91 589 36.55 36.55 21527.95 786846.5725
158	1509662 19083 239 328181 1.11 59.91 589 48.497422027588 1359.5788798691 415471.7372272 377481519.58682
157	1528745 19098 239 328181 1.11 59.91 589 20.950693848902 24.16217397158 13132.629897641 293240.4965952
155	1547843 20712 239 328181 1.11 59.91 589 -0.031900534921732 0.034536367436708 0.2112951061556 0.27929143189075
154	1568555 19065 239 328181 1.11 59.91 589 4.9775604297883 5.0229360130883 2944.6066964452 14721.127838708
156	1587620 10903 239 328181 1.11 59.91 589 7 7 4123 28861
168	1598523 24282 1308 328694 1.289466320914 59.989472983592 588 0.099998658955 0.100011662511 58.800005323135 5.8800010738666
167	1622805 24263 1000 328386 1.241823080747 59.941816743765 588 0.099998658962 0.100011662501 58.799992323475 5.8799984738004
166	1647068 16703 1308 328694 1.289466320914 59.989472983592 588 7 7 4116 28812
165	1663771 16690 1000 328386 1.241823080747 59.941816743765 588 7 7 4116 28812
164	1680461 918 5241 328735 2 60 59 0 0 0 0
163	1681379 1273 5241 328735 2 60 59 0.023625 0.02625 1.546125 0.040523765625
162	1682652 918 5241 328735 2 60 59 7 7 413 2891
