file 1683424 1501514044                                         
version 2
run SinusoidalNoAttack-117-20170731-17:13:33-89652
attr CACCSpacing 5
attr attackAcc -30
attr attackPos 7
attr attackSpeed 150
attr attackStart 30
attr attacker 0
attr beaconInterval 0.1
attr configname SinusoidalNoAttack
attr controller 3
attr datetime 20170731-17:13:33
attr experiment SinusoidalNoAttack
attr fakeAcc "(0 == 4)"
attr fakePos "(0 == 2)"
attr fakeSpeed "(0 == 3)"
attr inifile omnetpp_117.ini
attr iterationvars "$controller=3, $sController=\"CONSENSUS\", $CACCSpacing=5, $leaderSpeed=120, $attacker=0, $attackStart=30, $attackSpeed=150, $attackPos=7, $attackAcc=-30, $0=15, $1=0.8, $nCars=8, $platoonSize=8, $nLanes=1, $beaconInterval=0.1, $priority=2, $packetSize=200, $ploegH=0.5, $leaderHeadway=1.2, $fakeSpeed=(0 == 3), $fakeAcc=(0 == 4), $fakePos=(0 == 2)"
attr iterationvarsf controller=3,sController=CONSENSUS,CACCSpacing=5,leaderSpeed=120,attacker=0,attackStart=30,attackSpeed=150,attackPos=7,attackAcc=-30,15,0.8,nCars=8,platoonSize=8,nLanes=1,beaconInterval=0.1,priority=2,packetSize=200,ploegH=0.5,leaderHeadway=1.2,fakeSpeed=(0_==_3),fakeAcc=(0_==_4),fakePos=(0_==_2)-
attr leaderHeadway 1.2
attr leaderSpeed 120
attr measurement "$controller=3, $sController=\"CONSENSUS\", $CACCSpacing=5, $leaderSpeed=120, $attacker=0, $attackStart=30, $attackSpeed=150, $attackPos=7, $attackAcc=-30, $0=15, $1=0.8, $nCars=8, $platoonSize=8, $nLanes=1, $beaconInterval=0.1, $priority=2, $packetSize=200, $ploegH=0.5, $leaderHeadway=1.2, $fakeSpeed=(0 == 3), $fakeAcc=(0 == 4), $fakePos=(0 == 2)"
attr nCars 8
attr nLanes 1
attr network scenario
attr packetSize 200
attr platoonSize 8
attr ploegH 0.5
attr priority 2
attr processid 89652
attr repetition 2
attr replication #2
attr resultdir results
attr runnumber 117
attr sController "\"CONSENSUS\""
attr seedset 2
param **.coreDebug false
param **.debug false
param **.headway 0.1s
param **.numberOfCars 8
param **.numberOfCarsPerPlatoon 8
param **.numberOfLanes 1
param **.numericController 3
param **.traffic.nCars 8
param **.traffic.nLanes 1
param **.traffic.platoonInsertDistance 15m
param **.traffic.platoonInsertHeadway 0.8s
param **.traffic.platoonInsertSpeed 120kmph
param **.traffic.platoonInsertTime "1 s"
param **.traffic.platoonLeaderHeadway 1.2s
param **.traffic.platoonSize 8
param **.traffic.platooningVType "\"vtypeauto\""
param **.traffic_type "\"PlatoonsTrafficManager\""
param *.**.nic.mac1609_4.bitrate 6Mbps
param *.**.nic.mac1609_4.txPower 100mW
param *.**.nic.mac1609_4.useServiceChannel false
param *.**.nic.phy80211p.analogueModels "xmldoc(\"config.xml\")"
param *.**.nic.phy80211p.decider "xmldoc(\"config.xml\")"
param *.**.nic.phy80211p.maxTXPower 100mW
param *.**.nic.phy80211p.sensitivity -94dBm
param *.**.nic.phy80211p.thermalNoise -95dBm
param *.**.nic.phy80211p.usePropagationDelay true
param *.**.nic.phy80211p.useThermalNoise true
param *.annotations.draw false
param *.connectionManager.alpha 2.0
param *.connectionManager.carrierFrequency "5.890e9 Hz"
param *.connectionManager.pMax 100mW
param *.connectionManager.sat -94dBm
param *.connectionManager.sendDirect true
param *.manager.autoShutdown true
param *.manager.commandLine "\"sumo --remote-port $port --seed $seed --configuration-file $configFile\""
param *.manager.configFile "\"./sumocfg/freeway.sumo.cfg\""
param *.manager.host "\"localhost\""
param *.manager.margin 25
param *.manager.moduleDisplayString "\"\""
param *.manager.moduleName "\"node\""
param *.manager.moduleType "\"Car\""
param *.manager.updateInterval 0.01s
param *.node[*].appl.attackStart 30s
param *.node[*].appl.attackerType 0
param *.node[*].appl.simulationDuration "60 s"
param *.node[*].appl_type "\"SimplePlatooningApp\""
param *.node[*].helper.nCars 8
param *.node[*].helper.nLanes 1
param *.node[*].helper.platoonSize 8
param *.node[*].helper_type "\"PositionHelper\""
param *.node[*].mobility.x 0
param *.node[*].mobility.y 0
param *.node[*].mobility.z 1.895
param *.node[*].prot.attackStart 30s
param *.node[*].prot.attackerType 0
param *.node[*].prot.attackingNode 3
param *.node[*].prot.beaconingInterval 0.1s
param *.node[*].prot.fakeAcc "(0 == 4)"
param *.node[*].prot.fakePos "(0 == 2)"
param *.node[*].prot.fakeSpeed "(0 == 3)"
param *.node[*].prot.maliciousAcc "-30 mpss"
param *.node[*].prot.maliciousSpeed 150kmph
param *.node[*].prot.packetSize 200
param *.node[*].prot.priority 2
param *.node[*].prot.shiftX "7 m"
param *.node[*].prot.useControllerAcceleration true
param *.node[*].protocol_type "\"SimplePlatooningBeaconing\""
param *.node[*].scenario.accHeadway 0.1s
param *.node[*].scenario.caccC1 0.5
param *.node[*].scenario.caccOmegaN "0.2 Hz"
param *.node[*].scenario.caccSpacing 5m
param *.node[*].scenario.caccXi 1
param *.node[*].scenario.controller "\"CONSENSUS\""
param *.node[*].scenario.engineTau "0.5 s"
param *.node[*].scenario.leaderHeadway 1.2s
param *.node[*].scenario.leaderOscillationFrequency "0.2 Hz"
param *.node[*].scenario.leaderSpeed 120kmph
param *.node[*].scenario.oscillationAmplitude "10 kmph"
param *.node[*].scenario.ploegH 0.5s
param *.node[*].scenario.ploegKd 0.7
param *.node[*].scenario.ploegKp 0.2
param *.node[*].scenario.startOscillating "5 s"
param *.node[*].scenario.useRealisticEngine false
param *.node[*].scenario_type "\"SinusoidalScenario\""
param *.node[*].unicast.packetLossRate 0
param *.obstacles.debug false
param *.playgroundSizeX 65000m
param *.playgroundSizeY 25000m
param *.playgroundSizeZ 50m
param *.world.use2D false
param *.world.useTorus false

vector 0  scenario.node[0].appl  distance  ETV
vector 1  scenario.node[0].appl  relativeSpeed  ETV
vector 2  scenario.node[0].appl  nodeId  ETV
vector 6  scenario.node[0].appl  acceleration  ETV
vector 7  scenario.node[0].appl  controllerAcceleration  ETV
vector 3  scenario.node[0].appl  speed  ETV
vector 4  scenario.node[0].appl  posx  ETV
vector 5  scenario.node[0].appl  posy  ETV
vector 22  scenario.node[1].appl  distance  ETV
vector 23  scenario.node[1].appl  relativeSpeed  ETV
vector 24  scenario.node[1].appl  nodeId  ETV
vector 28  scenario.node[1].appl  acceleration  ETV
vector 29  scenario.node[1].appl  controllerAcceleration  ETV
vector 25  scenario.node[1].appl  speed  ETV
vector 26  scenario.node[1].appl  posx  ETV
vector 27  scenario.node[1].appl  posy  ETV
vector 44  scenario.node[2].appl  distance  ETV
vector 45  scenario.node[2].appl  relativeSpeed  ETV
vector 46  scenario.node[2].appl  nodeId  ETV
vector 50  scenario.node[2].appl  acceleration  ETV
vector 51  scenario.node[2].appl  controllerAcceleration  ETV
vector 47  scenario.node[2].appl  speed  ETV
vector 48  scenario.node[2].appl  posx  ETV
vector 49  scenario.node[2].appl  posy  ETV
vector 66  scenario.node[3].appl  distance  ETV
vector 67  scenario.node[3].appl  relativeSpeed  ETV
vector 68  scenario.node[3].appl  nodeId  ETV
vector 72  scenario.node[3].appl  acceleration  ETV
vector 73  scenario.node[3].appl  controllerAcceleration  ETV
vector 69  scenario.node[3].appl  speed  ETV
vector 70  scenario.node[3].appl  posx  ETV
vector 71  scenario.node[3].appl  posy  ETV
vector 88  scenario.node[4].appl  distance  ETV
vector 89  scenario.node[4].appl  relativeSpeed  ETV
vector 90  scenario.node[4].appl  nodeId  ETV
vector 94  scenario.node[4].appl  acceleration  ETV
vector 95  scenario.node[4].appl  controllerAcceleration  ETV
vector 91  scenario.node[4].appl  speed  ETV
vector 92  scenario.node[4].appl  posx  ETV
vector 93  scenario.node[4].appl  posy  ETV
vector 110  scenario.node[5].appl  distance  ETV
vector 111  scenario.node[5].appl  relativeSpeed  ETV
vector 112  scenario.node[5].appl  nodeId  ETV
vector 116  scenario.node[5].appl  acceleration  ETV
vector 117  scenario.node[5].appl  controllerAcceleration  ETV
vector 113  scenario.node[5].appl  speed  ETV
vector 114  scenario.node[5].appl  posx  ETV
vector 115  scenario.node[5].appl  posy  ETV
vector 132  scenario.node[6].appl  distance  ETV
vector 133  scenario.node[6].appl  relativeSpeed  ETV
vector 134  scenario.node[6].appl  nodeId  ETV
vector 138  scenario.node[6].appl  acceleration  ETV
vector 139  scenario.node[6].appl  controllerAcceleration  ETV
vector 135  scenario.node[6].appl  speed  ETV
vector 136  scenario.node[6].appl  posx  ETV
vector 137  scenario.node[6].appl  posy  ETV
vector 154  scenario.node[7].appl  distance  ETV
vector 155  scenario.node[7].appl  relativeSpeed  ETV
vector 156  scenario.node[7].appl  nodeId  ETV
vector 160  scenario.node[7].appl  acceleration  ETV
vector 161  scenario.node[7].appl  controllerAcceleration  ETV
vector 157  scenario.node[7].appl  speed  ETV
vector 158  scenario.node[7].appl  posx  ETV
vector 159  scenario.node[7].appl  posy  ETV
vector 168  scenario.node[7].prot  frontDelay  ETV
vector 166  scenario.node[7].prot  frontDelayId  ETV
vector 146  scenario.node[6].prot  frontDelay  ETV
vector 144  scenario.node[6].prot  frontDelayId  ETV
vector 35  scenario.node[1].prot  leaderDelay  ETV
vector 33  scenario.node[1].prot  leaderDelayId  ETV
vector 36  scenario.node[1].prot  frontDelay  ETV
vector 34  scenario.node[1].prot  frontDelayId  ETV
vector 57  scenario.node[2].prot  leaderDelay  ETV
vector 55  scenario.node[2].prot  leaderDelayId  ETV
vector 79  scenario.node[3].prot  leaderDelay  ETV
vector 77  scenario.node[3].prot  leaderDelayId  ETV
vector 101  scenario.node[4].prot  leaderDelay  ETV
vector 99  scenario.node[4].prot  leaderDelayId  ETV
vector 123  scenario.node[5].prot  leaderDelay  ETV
vector 121  scenario.node[5].prot  leaderDelayId  ETV
vector 145  scenario.node[6].prot  leaderDelay  ETV
vector 143  scenario.node[6].prot  leaderDelayId  ETV
vector 167  scenario.node[7].prot  leaderDelay  ETV
vector 165  scenario.node[7].prot  leaderDelayId  ETV
vector 102  scenario.node[4].prot  frontDelay  ETV
vector 100  scenario.node[4].prot  frontDelayId  ETV
vector 80  scenario.node[3].prot  frontDelay  ETV
vector 78  scenario.node[3].prot  frontDelayId  ETV
vector 124  scenario.node[5].prot  frontDelay  ETV
vector 122  scenario.node[5].prot  frontDelayId  ETV
vector 58  scenario.node[2].prot  frontDelay  ETV
vector 56  scenario.node[2].prot  frontDelayId  ETV
vector 8  scenario.node[0].prot  nodeId  ETV
vector 9  scenario.node[0].prot  busyTime  ETV
vector 10  scenario.node[0].prot  collisions  ETV
vector 30  scenario.node[1].prot  nodeId  ETV
vector 31  scenario.node[1].prot  busyTime  ETV
vector 32  scenario.node[1].prot  collisions  ETV
vector 52  scenario.node[2].prot  nodeId  ETV
vector 53  scenario.node[2].prot  busyTime  ETV
vector 54  scenario.node[2].prot  collisions  ETV
vector 74  scenario.node[3].prot  nodeId  ETV
vector 75  scenario.node[3].prot  busyTime  ETV
vector 76  scenario.node[3].prot  collisions  ETV
vector 96  scenario.node[4].prot  nodeId  ETV
vector 97  scenario.node[4].prot  busyTime  ETV
vector 98  scenario.node[4].prot  collisions  ETV
vector 118  scenario.node[5].prot  nodeId  ETV
vector 119  scenario.node[5].prot  busyTime  ETV
vector 120  scenario.node[5].prot  collisions  ETV
vector 140  scenario.node[6].prot  nodeId  ETV
vector 141  scenario.node[6].prot  busyTime  ETV
vector 142  scenario.node[6].prot  collisions  ETV
vector 162  scenario.node[7].prot  nodeId  ETV
vector 163  scenario.node[7].prot  busyTime  ETV
vector 164  scenario.node[7].prot  collisions  ETV
7	11254 13859 232 328174 1.11 59.91 589 -1.5 1.5 -14.445953361693 993.24092335941
6	25113 18579 232 328174 1.11 59.91 589 -1.4722746795918 1.4513434175775 -12.507247963452 675.29835166926
5	43692 12081 232 328174 1.11 59.91 589 36.55 36.55 21527.95 786846.5725
4	55773 17909 232 328174 1.11 59.91 589 357.89330024759 2322.2094305675 790110.02276648 1249568770.3477
3	73682 17913 232 328174 1.11 59.91 589 32.043521415285 35.298048086563 19676.061011579 657739.0394163
1	91595 9725 232 328174 1.11 59.91 589 0 0 0 0
0	101320 10314 232 328174 1.11 59.91 589 -1 -1 -589 589
2	111634 9725 232 328174 1.11 59.91 589 0 0 0 0
10	121359 858 5168 328662 2 60 59 0 0 0 0
9	122217 1154 5168 328662 2 60 59 0.023297 0.02625 1.545797 0.040508375209
8	123371 799 5168 328662 2 60 59 0 0 0 0
29	124170 19125 233 328175 1.11 59.91 589 -1.9952324210115 1.9889347211418 -12.136958024583 1173.7674701021
28	143295 19165 233 328175 1.11 59.91 589 -1.7216162954796 1.7126014387642 -3.4398935100292 803.88351502719
27	162460 12670 233 328175 1.11 59.91 589 36.55 36.55 21527.95 786846.5725
26	175130 18501 233 328175 1.11 59.91 589 312.22664375305 2277.2987289882 763175.20451473 1178573876.7676
25	193631 18474 233 328175 1.11 59.91 589 31.942412235032 35.288996117785 19683.947020471 658354.11235671
23	212105 19270 233 328175 1.11 59.91 589 -1.2227419492931 1.2115774483734 -7.7609364119905 439.94513207657
22	231375 18500 233 328175 1.11 59.91 589 40.621250772319 43.121505556934 24578.975971928 1025974.2742034
24	249875 10314 233 328175 1.11 59.91 589 1 1 589 589
36	260189 23721 1034 328420 1.262220722157 59.962210259694 588 0.099988347069 0.100001368639 58.799990888745 5.8799981871224
35	283910 23721 1034 328420 1.262220722157 59.962210259694 588 0.099988347069 0.100001368639 58.799990888745 5.8799981871224
34	307631 16132 1034 328420 1.262220722157 59.962210259694 588 1 1 588 588
33	323763 16132 1034 328420 1.262220722157 59.962210259694 588 1 1 588 588
32	339895 858 5169 328663 2 60 59 0 0 0 0
31	340753 1213 5169 328663 2 60 59 0.023296 0.02625 1.545796 0.040508328616
30	341966 858 5169 328663 2 60 59 1 1 59 59
51	342824 19168 234 328176 1.11 59.91 589 -1.5031396925526 1.4913677134875 -9.5726118316366 686.06935443191
50	361992 19241 234 328176 1.11 59.91 589 -1.2939014228643 1.270764937702 -2.9442994153371 451.3349880903
49	381233 12670 234 328176 1.11 59.91 589 36.55 36.55 21527.95 786846.5725
48	393903 18489 234 328176 1.11 59.91 589 266.55997200012 2231.3502230971 736245.1801808 1110055048.2342
47	412392 18501 234 328176 1.11 59.91 589 32.295911309437 34.956664850654 19681.142859438 657937.74544255
45	430893 19620 234 328176 1.11 59.91 589 -0.38763931259221 0.36034117130444 2.8385599682261 34.03200015412
44	450513 18497 234 328176 1.11 59.91 589 41.38364258842 42.319145188878 24573.968250707 1025291.1986095
46	469010 10314 234 328176 1.11 59.91 589 2 2 1178 2356
58	479324 23702 1312 328707 1.302601093106 60.002603633261 588 0.099988346652 0.100001368894 58.800003891363 5.8800007875121
57	503026 23697 1040 328426 1.262220874484 59.962210412954 588 0.09998834695 0.100001368736 58.799990889678 5.879998187309
56	526723 16121 1312 328707 1.302601093106 60.002603633261 588 2 2 1176 2352
55	542844 16117 1040 328426 1.262220874484 59.962210412954 588 2 2 1176 2352
54	558961 858 5170 328664 2 60 59 0 0 0 0
53	559819 1213 5170 328664 2 60 59 0.023297 0.02625 1.545797 0.040508375209
52	561032 858 5170 328664 2 60 59 2 2 118 236
73	561890 19150 235 328177 1.11 59.91 589 -1.5273842408722 1.5196868235401 -10.099989482627 702.02460171155
72	581040 19218 235 328177 1.11 59.91 589 -1.3287191966306 1.3182567437305 -3.5161306121104 486.6754058054
71	600258 12670 235 328177 1.11 59.91 589 36.55 36.55 21527.95 786846.5725
70	612928 18500 235 328177 1.11 59.91 589 220.89330024719 2185.7067978188 709315.90096142 1043994928.5368
69	631428 18509 235 328177 1.11 59.91 589 32.250106295869 34.898025414156 19681.355376758 657971.34431579
67	649937 20111 235 328177 1.11 59.91 589 -0.098182934238402 0.12090026550593 -0.18307432634654 1.630888515668
66	670048 18480 235 328177 1.11 59.91 589 41.6162585406 41.986084950546 24573.283469731 1025210.9993806
68	688528 10314 235 328177 1.11 59.91 589 3 3 1767 5301
80	698842 23698 1176 328556 1.287877331468 59.98787986974 588 0.099988346958 0.100001368659 58.80000388948 5.8800007871355
79	722540 23678 1046 328432 1.262221026812 59.962210565214 588 0.099988346961 0.100001368717 58.79999088961 5.8799981872954
78	746218 16125 1176 328556 1.287877331468 59.98787986974 588 3 3 1764 5292
77	762343 16101 1046 328432 1.262221026812 59.962210565214 588 3 3 1764 5292
76	778444 858 5171 328665 2 60 59 0 0 0 0
75	779302 1213 5171 328665 2 60 59 0.023297 0.02625 1.545797 0.040508375209
74	780515 858 5171 328665 2 60 59 3 3 177 531
95	781373 19156 236 328178 1.11 59.91 589 -1.4863397355412 1.4823224284629 -9.6968816092505 670.34157643417
94	800529 19237 236 328178 1.11 59.91 589 -1.2912430271321 1.2861698513404 -3.2248587673784 462.05463888507
93	819766 12670 236 328178 1.11 59.91 589 36.55 36.55 21527.95 786846.5725
92	832436 18494 236 328178 1.11 59.91 589 175.22662849426 2140.0234487892 682386.06725285 980388048.27248
91	850930 18511 236 328178 1.11 59.91 589 32.279373824913 34.862584341741 19681.198567047 657944.61640429
89	869441 20185 236 328178 1.11 59.91 589 -0.045637961613579 0.051995984424558 0.19197101764409 0.29376145018548
88	889626 18495 236 328178 1.11 59.91 589 41.638765128206 41.897328637351 24573.830572377 1025254.7075783
90	908121 10314 236 328178 1.11 59.91 589 4 4 2356 9424
102	918435 24271 1108 328494 1.27658317914 59.976585717591 588 0.099988346841 0.100001368734 58.800003889659 5.8800007871713
101	942706 24290 1052 328438 1.262221179139 59.962210717592 588 0.099988346953 0.100001368734 58.799990889661 5.8799981873056
100	966996 16703 1108 328494 1.27658317914 59.976585717591 588 4 4 2352 9408
99	983699 16125 1052 328438 1.262221179139 59.962210717592 588 4 4 2352 9408
98	999824 858 5172 328666 2 60 59 0 0 0 0
97	1000682 1213 5172 328666 2 60 59 0.023297 0.02625 1.545797 0.040508375209
96	1001895 858 5172 328666 2 60 59 4 4 236 944
117	1002753 19757 237 328179 1.11 59.91 589 -1.4365193525645 1.4354912553787 -9.4186522088753 627.30216256363
116	1022510 19832 237 328179 1.11 59.91 589 -1.2579043637224 1.2517727180992 -3.1724230193205 437.9312560469
115	1042342 13259 237 328179 1.11 59.91 589 36.55 36.55 21527.95 786846.5725
114	1055601 19093 237 328179 1.11 59.91 589 129.55996437073 2094.3341723004 655456.38999984 919238164.02224
113	1074694 19106 237 328179 1.11 59.91 589 32.307779587951 34.827475790368 19680.974077327 657913.28365197
111	1093800 20720 237 328179 1.11 59.91 589 -0.044847966491943 0.053235490353096 0.25673830740124 0.32192702275481
110	1114520 19083 237 328179 1.11 59.91 589 41.644512445964 41.864993243195 24573.672763207 1025240.6139204
112	1133603 10903 237 328179 1.11 59.91 589 5 5 2945 14725
124	1144506 24308 1244 328630 1.297507636123 59.997510174517 588 0.099988346938 0.100001368712 58.800003889602 5.8800007871599
123	1168814 24292 1058 328444 1.262221331467 59.962210869994 588 0.099988346943 0.10000136875 58.799990889735 5.8799981873204
122	1193106 16718 1244 328630 1.297507636123 59.997510174517 588 5 5 2940 14700
121	1209824 16711 1058 328444 1.262221331467 59.962210869994 588 5 5 2940 14700
120	1226535 917 5173 328667 2 60 59 0 0 0 0
119	1227452 1272 5173 328667 2 60 59 0.023297 0.02625 1.545797 0.040508375209
118	1228724 917 5173 328667 2 60 59 5 5 295 1475
139	1229641 19747 238 328180 1.11 59.91 589 -1.4230877203352 1.4211778159793 -9.2932894706007 615.8984508243
138	1249388 19841 238 328180 1.11 59.91 589 -1.2266206526775 1.2227592181446 -3.0862465858718 417.46772266083
137	1269229 13259 238 328180 1.11 59.91 589 36.55 36.55 21527.95 786846.5725
136	1282488 19094 238 328180 1.11 59.91 589 83.893300247192 2048.6490174912 628526.7242466 860545177.14733
135	1301582 19080 238 328180 1.11 59.91 589 32.331785069211 34.792574977902 19680.791924725 657887.76087775
133	1320662 20770 238 328180 1.11 59.91 589 -0.035585622667291 0.037301526251468 0.21387683189194 0.21084970525096
132	1341432 19064 238 328180 1.11 59.91 589 41.649558403739 41.830929753329 24573.662110195 1025239.0648772
134	1360496 10903 238 328180 1.11 59.91 589 6 6 3534 21204
146	1371399 24298 970 328350 1.247597960519 59.947600502412 588 0.099988346875 0.100001368954 58.800003893101 5.8800007878597
145	1395697 24287 1064 328450 1.262221483795 59.962211022382 588 0.099988346935 0.10000136876 58.799990889795 5.8799981873324
144	1419984 16714 970 328350 1.247597960519 59.947600502412 588 6 6 3528 21168
143	1436698 16697 1064 328450 1.262221483795 59.962211022382 588 6 6 3528 21168
142	1453395 917 5174 328668 2 60 59 0 0 0 0
141	1454312 1272 5174 328668 2 60 59 0.023297 0.02625 1.545797 0.040508375209
140	1455584 917 5174 328668 2 60 59 6 6 354 2124
161	1456501 19783 239 328181 1.11 59.91 589 -1.4013435843735 1.397460300303 -9.1245266802745 596.75104403367
160	1476284 19863 239 328181 1.11 59.91 589 -1.1971819565169 1.1935602846123 -3.0181082227209 397.83959684999
159	1496147 13259 239 328181 1.11 59.91 589 36.55 36.55 21527.95 786846.5725
158	1509406 19085 239 328181 1.11 59.91 589 38.226633262634 2002.9613772378 601597.14222296 804309802.44193
157	1528491 19088 239 328181 1.11 59.91 589 32.357012450176 34.758499580696 19680.58443004 657860.56234317
155	1547579 20791 239 328181 1.11 59.91 589 -0.035116615644959 0.037217823371755 0.23835715093766 0.22130774460745
154	1568370 19072 239 328181 1.11 59.91 589 41.651103973312 41.808996746218 24573.577873749 1025231.6015161
156	1587442 10903 239 328181 1.11 59.91 589 7 7 4123 28861
168	1598345 24290 832 328218 1.212126503536 59.912129045238 588 0.099988346555 0.100001368926 58.79999089291 5.8799981879554
167	1622635 24286 1070 328456 1.262221636122 59.962211174778 588 0.099988346928 0.100001368768 58.799990889864 5.8799981873462
166	1646921 16704 832 328218 1.212126503536 59.912129045238 588 7 7 4116 28812
165	1663625 16693 1070 328456 1.262221636122 59.962211174778 588 7 7 4116 28812
164	1680318 917 5175 328669 2 60 59 0 0 0 0
163	1681235 1272 5175 328669 2 60 59 0.023297 0.02625 1.545797 0.040508375209
162	1682507 917 5175 328669 2 60 59 7 7 413 2891
