file 1683637 1501512488                                         
version 2
run SinusoidalNoAttack-19-20170731-16:47:34-30651
attr CACCSpacing 5
attr attackAcc -30
attr attackPos 7
attr attackSpeed 150
attr attackStart 30
attr attacker 0
attr beaconInterval 0.1
attr configname SinusoidalNoAttack
attr controller 1
attr datetime 20170731-16:47:34
attr experiment SinusoidalNoAttack
attr fakeAcc "(0 == 4)"
attr fakePos "(0 == 2)"
attr fakeSpeed "(0 == 3)"
attr inifile omnetpp_19.ini
attr iterationvars "$controller=1, $sController=\"CACC\", $CACCSpacing=5, $leaderSpeed=120, $attacker=0, $attackStart=30, $attackSpeed=150, $attackPos=7, $attackAcc=-30, $0=5, $1=0, $nCars=8, $platoonSize=8, $nLanes=1, $beaconInterval=0.1, $priority=2, $packetSize=200, $ploegH=0.5, $leaderHeadway=1.2, $fakeSpeed=(0 == 3), $fakeAcc=(0 == 4), $fakePos=(0 == 2)"
attr iterationvarsf controller=1,sController=CACC,CACCSpacing=5,leaderSpeed=120,attacker=0,attackStart=30,attackSpeed=150,attackPos=7,attackAcc=-30,5,0,nCars=8,platoonSize=8,nLanes=1,beaconInterval=0.1,priority=2,packetSize=200,ploegH=0.5,leaderHeadway=1.2,fakeSpeed=(0_==_3),fakeAcc=(0_==_4),fakePos=(0_==_2)-
attr leaderHeadway 1.2
attr leaderSpeed 120
attr measurement "$controller=1, $sController=\"CACC\", $CACCSpacing=5, $leaderSpeed=120, $attacker=0, $attackStart=30, $attackSpeed=150, $attackPos=7, $attackAcc=-30, $0=5, $1=0, $nCars=8, $platoonSize=8, $nLanes=1, $beaconInterval=0.1, $priority=2, $packetSize=200, $ploegH=0.5, $leaderHeadway=1.2, $fakeSpeed=(0 == 3), $fakeAcc=(0 == 4), $fakePos=(0 == 2)"
attr nCars 8
attr nLanes 1
attr network scenario
attr packetSize 200
attr platoonSize 8
attr ploegH 0.5
attr priority 2
attr processid 30651
attr repetition 4
attr replication #4
attr resultdir results
attr runnumber 19
attr sController "\"CACC\""
attr seedset 4
param **.coreDebug false
param **.debug false
param **.headway 0.1s
param **.numberOfCars 8
param **.numberOfCarsPerPlatoon 8
param **.numberOfLanes 1
param **.numericController 1
param **.traffic.nCars 8
param **.traffic.nLanes 1
param **.traffic.platoonInsertDistance 5m
param **.traffic.platoonInsertHeadway 0s
param **.traffic.platoonInsertSpeed 120kmph
param **.traffic.platoonInsertTime "1 s"
param **.traffic.platoonLeaderHeadway 1.2s
param **.traffic.platoonSize 8
param **.traffic.platooningVType "\"vtypeauto\""
param **.traffic_type "\"PlatoonsTrafficManager\""
param *.**.nic.mac1609_4.bitrate 6Mbps
param *.**.nic.mac1609_4.txPower 100mW
param *.**.nic.mac1609_4.useServiceChannel false
param *.**.nic.phy80211p.analogueModels "xmldoc(\"config.xml\")"
param *.**.nic.phy80211p.decider "xmldoc(\"config.xml\")"
param *.**.nic.phy80211p.maxTXPower 100mW
param *.**.nic.phy80211p.sensitivity -94dBm
param *.**.nic.phy80211p.thermalNoise -95dBm
param *.**.nic.phy80211p.usePropagationDelay true
param *.**.nic.phy80211p.useThermalNoise true
param *.annotations.draw false
param *.connectionManager.alpha 2.0
param *.connectionManager.carrierFrequency "5.890e9 Hz"
param *.connectionManager.pMax 100mW
param *.connectionManager.sat -94dBm
param *.connectionManager.sendDirect true
param *.manager.autoShutdown true
param *.manager.commandLine "\"sumo --remote-port $port --seed $seed --configuration-file $configFile\""
param *.manager.configFile "\"./sumocfg/freeway.sumo.cfg\""
param *.manager.host "\"localhost\""
param *.manager.margin 25
param *.manager.moduleDisplayString "\"\""
param *.manager.moduleName "\"node\""
param *.manager.moduleType "\"Car\""
param *.manager.updateInterval 0.01s
param *.node[*].appl.attackStart 30s
param *.node[*].appl.attackerType 0
param *.node[*].appl.simulationDuration "60 s"
param *.node[*].appl_type "\"SimplePlatooningApp\""
param *.node[*].helper.nCars 8
param *.node[*].helper.nLanes 1
param *.node[*].helper.platoonSize 8
param *.node[*].helper_type "\"PositionHelper\""
param *.node[*].mobility.x 0
param *.node[*].mobility.y 0
param *.node[*].mobility.z 1.895
param *.node[*].prot.attackStart 30s
param *.node[*].prot.attackerType 0
param *.node[*].prot.attackingNode 3
param *.node[*].prot.beaconingInterval 0.1s
param *.node[*].prot.fakeAcc "(0 == 4)"
param *.node[*].prot.fakePos "(0 == 2)"
param *.node[*].prot.fakeSpeed "(0 == 3)"
param *.node[*].prot.maliciousAcc "-30 mpss"
param *.node[*].prot.maliciousSpeed 150kmph
param *.node[*].prot.packetSize 200
param *.node[*].prot.priority 2
param *.node[*].prot.shiftX "7 m"
param *.node[*].prot.useControllerAcceleration true
param *.node[*].protocol_type "\"SimplePlatooningBeaconing\""
param *.node[*].scenario.accHeadway 0.1s
param *.node[*].scenario.caccC1 0.5
param *.node[*].scenario.caccOmegaN "0.2 Hz"
param *.node[*].scenario.caccSpacing 5m
param *.node[*].scenario.caccXi 1
param *.node[*].scenario.controller "\"CACC\""
param *.node[*].scenario.engineTau "0.5 s"
param *.node[*].scenario.leaderHeadway 1.2s
param *.node[*].scenario.leaderOscillationFrequency "0.2 Hz"
param *.node[*].scenario.leaderSpeed 120kmph
param *.node[*].scenario.oscillationAmplitude "10 kmph"
param *.node[*].scenario.ploegH 0.5s
param *.node[*].scenario.ploegKd 0.7
param *.node[*].scenario.ploegKp 0.2
param *.node[*].scenario.startOscillating "5 s"
param *.node[*].scenario.useRealisticEngine false
param *.node[*].scenario_type "\"SinusoidalScenario\""
param *.node[*].unicast.packetLossRate 0
param *.obstacles.debug false
param *.playgroundSizeX 65000m
param *.playgroundSizeY 25000m
param *.playgroundSizeZ 50m
param *.world.use2D false
param *.world.useTorus false

vector 0  scenario.node[0].appl  distance  ETV
vector 1  scenario.node[0].appl  relativeSpeed  ETV
vector 2  scenario.node[0].appl  nodeId  ETV
vector 6  scenario.node[0].appl  acceleration  ETV
vector 7  scenario.node[0].appl  controllerAcceleration  ETV
vector 3  scenario.node[0].appl  speed  ETV
vector 4  scenario.node[0].appl  posx  ETV
vector 5  scenario.node[0].appl  posy  ETV
vector 22  scenario.node[1].appl  distance  ETV
vector 23  scenario.node[1].appl  relativeSpeed  ETV
vector 24  scenario.node[1].appl  nodeId  ETV
vector 28  scenario.node[1].appl  acceleration  ETV
vector 29  scenario.node[1].appl  controllerAcceleration  ETV
vector 25  scenario.node[1].appl  speed  ETV
vector 26  scenario.node[1].appl  posx  ETV
vector 27  scenario.node[1].appl  posy  ETV
vector 44  scenario.node[2].appl  distance  ETV
vector 45  scenario.node[2].appl  relativeSpeed  ETV
vector 46  scenario.node[2].appl  nodeId  ETV
vector 50  scenario.node[2].appl  acceleration  ETV
vector 51  scenario.node[2].appl  controllerAcceleration  ETV
vector 47  scenario.node[2].appl  speed  ETV
vector 48  scenario.node[2].appl  posx  ETV
vector 49  scenario.node[2].appl  posy  ETV
vector 66  scenario.node[3].appl  distance  ETV
vector 67  scenario.node[3].appl  relativeSpeed  ETV
vector 68  scenario.node[3].appl  nodeId  ETV
vector 72  scenario.node[3].appl  acceleration  ETV
vector 73  scenario.node[3].appl  controllerAcceleration  ETV
vector 69  scenario.node[3].appl  speed  ETV
vector 70  scenario.node[3].appl  posx  ETV
vector 71  scenario.node[3].appl  posy  ETV
vector 88  scenario.node[4].appl  distance  ETV
vector 89  scenario.node[4].appl  relativeSpeed  ETV
vector 90  scenario.node[4].appl  nodeId  ETV
vector 94  scenario.node[4].appl  acceleration  ETV
vector 95  scenario.node[4].appl  controllerAcceleration  ETV
vector 91  scenario.node[4].appl  speed  ETV
vector 92  scenario.node[4].appl  posx  ETV
vector 93  scenario.node[4].appl  posy  ETV
vector 110  scenario.node[5].appl  distance  ETV
vector 111  scenario.node[5].appl  relativeSpeed  ETV
vector 112  scenario.node[5].appl  nodeId  ETV
vector 116  scenario.node[5].appl  acceleration  ETV
vector 117  scenario.node[5].appl  controllerAcceleration  ETV
vector 113  scenario.node[5].appl  speed  ETV
vector 114  scenario.node[5].appl  posx  ETV
vector 115  scenario.node[5].appl  posy  ETV
vector 132  scenario.node[6].appl  distance  ETV
vector 133  scenario.node[6].appl  relativeSpeed  ETV
vector 134  scenario.node[6].appl  nodeId  ETV
vector 138  scenario.node[6].appl  acceleration  ETV
vector 139  scenario.node[6].appl  controllerAcceleration  ETV
vector 135  scenario.node[6].appl  speed  ETV
vector 136  scenario.node[6].appl  posx  ETV
vector 137  scenario.node[6].appl  posy  ETV
vector 154  scenario.node[7].appl  distance  ETV
vector 155  scenario.node[7].appl  relativeSpeed  ETV
vector 156  scenario.node[7].appl  nodeId  ETV
vector 160  scenario.node[7].appl  acceleration  ETV
vector 161  scenario.node[7].appl  controllerAcceleration  ETV
vector 157  scenario.node[7].appl  speed  ETV
vector 158  scenario.node[7].appl  posx  ETV
vector 159  scenario.node[7].appl  posy  ETV
vector 102  scenario.node[4].prot  frontDelay  ETV
vector 100  scenario.node[4].prot  frontDelayId  ETV
vector 35  scenario.node[1].prot  leaderDelay  ETV
vector 33  scenario.node[1].prot  leaderDelayId  ETV
vector 36  scenario.node[1].prot  frontDelay  ETV
vector 34  scenario.node[1].prot  frontDelayId  ETV
vector 57  scenario.node[2].prot  leaderDelay  ETV
vector 55  scenario.node[2].prot  leaderDelayId  ETV
vector 79  scenario.node[3].prot  leaderDelay  ETV
vector 77  scenario.node[3].prot  leaderDelayId  ETV
vector 101  scenario.node[4].prot  leaderDelay  ETV
vector 99  scenario.node[4].prot  leaderDelayId  ETV
vector 123  scenario.node[5].prot  leaderDelay  ETV
vector 121  scenario.node[5].prot  leaderDelayId  ETV
vector 145  scenario.node[6].prot  leaderDelay  ETV
vector 143  scenario.node[6].prot  leaderDelayId  ETV
vector 167  scenario.node[7].prot  leaderDelay  ETV
vector 165  scenario.node[7].prot  leaderDelayId  ETV
vector 80  scenario.node[3].prot  frontDelay  ETV
vector 78  scenario.node[3].prot  frontDelayId  ETV
vector 146  scenario.node[6].prot  frontDelay  ETV
vector 144  scenario.node[6].prot  frontDelayId  ETV
vector 58  scenario.node[2].prot  frontDelay  ETV
vector 56  scenario.node[2].prot  frontDelayId  ETV
vector 124  scenario.node[5].prot  frontDelay  ETV
vector 122  scenario.node[5].prot  frontDelayId  ETV
vector 168  scenario.node[7].prot  frontDelay  ETV
vector 166  scenario.node[7].prot  frontDelayId  ETV
vector 8  scenario.node[0].prot  nodeId  ETV
vector 9  scenario.node[0].prot  busyTime  ETV
vector 10  scenario.node[0].prot  collisions  ETV
vector 30  scenario.node[1].prot  nodeId  ETV
vector 31  scenario.node[1].prot  busyTime  ETV
vector 32  scenario.node[1].prot  collisions  ETV
vector 52  scenario.node[2].prot  nodeId  ETV
vector 53  scenario.node[2].prot  busyTime  ETV
vector 54  scenario.node[2].prot  collisions  ETV
vector 74  scenario.node[3].prot  nodeId  ETV
vector 75  scenario.node[3].prot  busyTime  ETV
vector 76  scenario.node[3].prot  collisions  ETV
vector 96  scenario.node[4].prot  nodeId  ETV
vector 97  scenario.node[4].prot  busyTime  ETV
vector 98  scenario.node[4].prot  collisions  ETV
vector 118  scenario.node[5].prot  nodeId  ETV
vector 119  scenario.node[5].prot  busyTime  ETV
vector 120  scenario.node[5].prot  collisions  ETV
vector 140  scenario.node[6].prot  nodeId  ETV
vector 141  scenario.node[6].prot  busyTime  ETV
vector 142  scenario.node[6].prot  collisions  ETV
vector 162  scenario.node[7].prot  nodeId  ETV
vector 163  scenario.node[7].prot  busyTime  ETV
vector 164  scenario.node[7].prot  collisions  ETV
7	11214 13859 232 328174 1.11 59.91 589 -1.5 1.5 -14.445953361693 993.24092335941
6	25073 18579 232 328174 1.11 59.91 589 -1.4722746795918 1.4513434175775 -12.507247963452 675.29835166926
5	43652 12081 232 328174 1.11 59.91 589 36.55 36.55 21527.95 786846.5725
4	55733 17913 232 328174 1.11 59.91 589 112.60853309671 2076.9246634166 645637.29491461 897401823.8428
3	73646 17913 232 328174 1.11 59.91 589 32.043521415285 35.298048086563 19676.061011579 657739.0394163
1	91559 9725 232 328174 1.11 59.91 589 0 0 0 0
0	101284 10314 232 328174 1.11 59.91 589 -1 -1 -589 589
2	111598 9725 232 328174 1.11 59.91 589 0 0 0 0
10	121323 859 5234 328728 2 60 59 0 0 0 0
9	122182 1155 5234 328728 2 60 59 0.023625 0.02625 1.546125 0.040523765625
8	123337 800 5234 328728 2 60 59 0 0 0 0
29	124137 19073 233 328175 1.11 59.91 589 -1.5034793950415 1.5024511412863 -15.505696361182 989.15336806282
28	143210 19156 233 328175 1.11 59.91 589 -1.4807765620844 1.4557932508446 -12.221032715629 676.42621571098
27	162366 12670 233 328175 1.11 59.91 589 36.55 36.55 21527.95 786846.5725
26	175036 18479 233 328175 1.11 59.91 589 103.60853309631 2067.9892403359 640336.92782097 885829675.61652
25	193515 18486 233 328175 1.11 59.91 589 32.042841360829 35.304685218279 19676.71780183 657783.78103144
23	212001 20085 233 328175 1.11 59.91 589 -0.064317895981091 0.062036122076186 -0.53171777149942 1.2272975941365
22	232086 18499 233 328175 1.11 59.91 589 4.916224486492 5.0934698845562 2944.3802294477 14720.036536262
24	250585 10314 233 328175 1.11 59.91 589 1 1 589 589
36	260899 23714 964 328350 1.241822900623 59.941816563758 588 0.099998658966 0.100011662497 58.799992323592 5.8799984738238
35	284613 23714 964 328350 1.241822900623 59.941816563758 588 0.099998658966 0.100011662497 58.799992323592 5.8799984738238
34	308327 16129 964 328350 1.241822900623 59.941816563758 588 1 1 588 588
33	324456 16129 964 328350 1.241822900623 59.941816563758 588 1 1 588 588
32	340585 859 5235 328729 2 60 59 0 0 0 0
31	341444 1214 5235 328729 2 60 59 0.023625 0.02625 1.546125 0.040523765625
30	342658 859 5235 328729 2 60 59 1 1 59 59
51	343517 19066 234 328176 1.11 59.91 589 -1.5169291844425 1.5151528882951 -15.601258088559 999.4820184016
50	362583 19154 234 328176 1.11 59.91 589 -1.4744692100919 1.4486483616651 -12.050512151701 671.79687455853
49	381737 12670 234 328176 1.11 59.91 589 36.55 36.55 21527.95 786846.5725
48	394407 18499 234 328176 1.11 59.91 589 94.608533096313 2059.0108635294 635036.22124228 874352547.03252
47	412906 18495 234 328176 1.11 59.91 589 32.045362637163 35.298033359071 19676.940340096 657795.44044393
45	431401 20288 234 328176 1.11 59.91 589 -0.018683348444839 0.01616485021475 -0.1003279389452 0.063853362696736
44	451689 18491 234 328176 1.11 59.91 589 4.9677845588951 5.0430603562703 2944.7110294586 14722.291384157
46	470180 10314 234 328176 1.11 59.91 589 2 2 1178 2356
58	480494 23711 1176 328562 1.28193217081 59.981938833536 588 0.099998658959 0.100011662521 58.800005323183 5.8800010738762
57	504205 23703 970 328356 1.241822930644 59.941816593705 588 0.099998658967 0.100011662495 58.799992323518 5.879998473809
56	527908 16126 1176 328562 1.28193217081 59.981938833536 588 2 2 1176 2352
55	544034 16115 970 328356 1.241822930644 59.941816593705 588 2 2 1176 2352
54	560149 859 5236 328730 2 60 59 0 0 0 0
53	561008 1214 5236 328730 2 60 59 0.023625 0.02625 1.546125 0.040523765625
52	562222 859 5236 328730 2 60 59 2 2 118 236
73	563081 19070 235 328177 1.11 59.91 589 -1.4985212016418 1.4980940950825 -15.551113547597 975.17533171034
72	582151 19156 235 328177 1.11 59.91 589 -1.4637937878575 1.4376572527553 -11.863326674483 661.19219234749
71	601307 12670 235 328177 1.11 59.91 589 36.55 36.55 21527.95 786846.5725
70	613977 18492 235 328177 1.11 59.91 589 85.608533096313 2050.0230172707 629735.49745228 862971144.24239
69	632469 18482 235 328177 1.11 59.91 589 32.054845642621 35.287778891899 19677.068683267 657797.29855711
67	650951 20474 235 328177 1.11 59.91 589 -0.015548588642091 0.013757114313741 -0.0078380492120047 0.03231086505878
66	671425 18490 235 328177 1.11 59.91 589 4.9738526428745 5.0387419957037 2944.7263568557 14722.377559037
68	689915 10314 235 328177 1.11 59.91 589 3 3 1767 5301
80	700229 23702 1040 328426 1.262749960665 59.962756623682 588 0.099998658965 0.100011662364 58.800005323474 5.8800010739344
79	723931 23695 976 328362 1.241822960664 59.941816623684 588 0.099998658964 0.100011662496 58.799992323477 5.8799984738008
78	747626 16116 1040 328426 1.262749960665 59.962756623682 588 3 3 1764 5292
77	763742 16113 976 328362 1.241822960664 59.941816623684 588 3 3 1764 5292
76	779855 859 5237 328731 2 60 59 0 0 0 0
75	780714 1214 5237 328731 2 60 59 0.023625 0.02625 1.546125 0.040523765625
74	781928 859 5237 328731 2 60 59 3 3 177 531
95	782787 19034 236 328178 1.11 59.91 589 -1.4920639053968 1.49229801827 -15.604500279347 959.38421669741
94	801821 19154 236 328178 1.11 59.91 589 -1.4606979386613 1.433651192832 -11.628323620908 657.77645968441
93	820975 12670 236 328178 1.11 59.91 589 36.55 36.55 21527.95 786846.5725
92	833645 18485 236 328178 1.11 59.91 589 76.608533096313 2041.0532465794 624434.75043355 851685393.92649
91	852130 18484 236 328178 1.11 59.91 589 32.059309536331 35.285170118982 19677.379676824 657815.77917622
89	870614 20148 236 328178 1.11 59.91 589 -0.026253897356973 0.025337546886995 -0.19236029012817 0.19499446154246
88	890762 18490 236 328178 1.11 59.91 589 4.9580812635974 5.0545017390068 2944.7532386053 14722.863229786
90	909252 10314 236 328178 1.11 59.91 589 4 4 2356 9424
102	919566 24274 904 328284 1.240525810561 59.940532474146 588 0.099998658953 0.100011662399 58.800005324042 5.880001074048
101	943840 24298 982 328368 1.241822990685 59.941816653601 588 0.099998658966 0.100011662493 58.799992323373 5.87999847378
100	968138 16699 904 328284 1.240525810561 59.940532474146 588 4 4 2352 9408
99	984837 16120 982 328368 1.241822990685 59.941816653601 588 4 4 2352 9408
98	1000957 859 5238 328732 2 60 59 0 0 0 0
97	1001816 1214 5238 328732 2 60 59 0.023625 0.02625 1.546125 0.040523765625
96	1003030 859 5238 328732 2 60 59 4 4 236 944
117	1003889 19664 237 328179 1.11 59.91 589 -1.4980277550227 1.498882784615 -15.564512742332 972.70727597945
116	1023553 19729 237 328179 1.11 59.91 589 -1.4539402577149 1.4286559783216 -11.691092450488 653.61597926523
115	1043282 13259 237 328179 1.11 59.91 589 36.55 36.55 21527.95 786846.5725
114	1056541 19088 237 328179 1.11 59.91 589 67.608533096313 2032.036686262 619134.13793905 840495031.30774
113	1075629 19081 237 328179 1.11 59.91 589 32.062355477017 35.277356777148 19677.211578997 657801.87855991
111	1094710 20684 237 328179 1.11 59.91 589 -0.034429566212189 0.035220630232885 0.28438106305035 0.36851193091791
110	1115394 19070 237 328179 1.11 59.91 589 4.977489868651 5.0290412158893 2944.6091325467 14721.18182086
112	1134464 10903 237 328179 1.11 59.91 589 5 5 2945 14725
124	1145367 24269 1242 328628 1.287402260872 59.987395923503 588 0.099998658956 0.100011662332 58.800005323088 5.8800010738572
123	1169636 24295 988 328374 1.241823020706 59.941816683678 588 0.099998658963 0.100011662497 58.799992323429 5.8799984737912
122	1193931 16688 1242 328628 1.287402260872 59.987395923503 588 5 5 2940 14700
121	1210619 16714 988 328374 1.241823020706 59.941816683678 588 5 5 2940 14700
120	1227333 918 5239 328733 2 60 59 0 0 0 0
119	1228251 1273 5239 328733 2 60 59 0.023625 0.02625 1.546125 0.040523765625
118	1229524 918 5239 328733 2 60 59 5 5 295 1475
139	1230442 19639 238 328180 1.11 59.91 589 -1.4889617641345 1.4892821233597 -15.43993597513 953.20495859202
138	1250081 19727 238 328180 1.11 59.91 589 -1.4484613426063 1.4236625864719 -11.65367782287 647.40831785281
137	1269808 13259 238 328180 1.11 59.91 589 36.55 36.55 21527.95 786846.5725
136	1283067 19089 238 328180 1.11 59.91 589 58.608533096313 2023.0323102843 613833.45663942 829400187.07175
135	1302156 19076 238 328180 1.11 59.91 589 32.068608242362 35.268907417136 19677.169096298 657795.23042232
133	1321232 20732 238 328180 1.11 59.91 589 -0.018955475704502 0.019374233262852 0.1593936231383 0.10920744470286
132	1341964 19075 238 328180 1.11 59.91 589 4.9898918383929 5.0150694776665 2944.6804499713 14721.821891535
134	1361039 10903 238 328180 1.11 59.91 589 6 6 3534 21204
146	1371942 24299 1106 328486 1.266712050727 59.96670571371 588 0.099998658961 0.1000116625 58.79999232344 5.8799984737934
145	1396241 24299 994 328380 1.241823050727 59.941816713713 588 0.099998658961 0.100011662499 58.799992323443 5.879998473794
144	1420540 16715 1106 328486 1.266712050727 59.96670571371 588 6 6 3528 21168
143	1437255 16713 994 328380 1.241823050727 59.941816713713 588 6 6 3528 21168
142	1453968 918 5240 328734 2 60 59 0 0 0 0
141	1454886 1273 5240 328734 2 60 59 0.023625 0.02625 1.546125 0.040523765625
140	1456159 918 5240 328734 2 60 59 6 6 354 2124
161	1457077 19654 239 328181 1.11 59.91 589 -1.4963534196639 1.496618898628 -15.491093195636 972.37447565588
160	1476731 19727 239 328181 1.11 59.91 589 -1.4517793221252 1.428212040237 -11.787750196791 653.87841366242
159	1496458 13259 239 328181 1.11 59.91 589 36.55 36.55 21527.95 786846.5725
158	1509717 19098 239 328181 1.11 59.91 589 49.608533096313 2014.0233238901 608532.84804165 818400559.06722
157	1528815 19080 239 328181 1.11 59.91 589 32.061804964343 35.273285072362 19677.074337999 657792.76565235
155	1547895 20717 239 328181 1.11 59.91 589 -0.031900535188313 0.03453637043669 0.21129507723195 0.27929143270646
154	1568612 19075 239 328181 1.11 59.91 589 4.9775604310202 5.0229360338026 2944.6067026083 14721.127900356
156	1587687 10903 239 328181 1.11 59.91 589 7 7 4123 28861
168	1598590 24282 1308 328694 1.289466320914 59.989472983592 588 0.099998658955 0.100011662511 58.800005323135 5.8800010738666
167	1622872 24263 1000 328386 1.241823080747 59.941816743765 588 0.099998658962 0.100011662501 58.799992323475 5.8799984738004
166	1647135 16703 1308 328694 1.289466320914 59.989472983592 588 7 7 4116 28812
165	1663838 16690 1000 328386 1.241823080747 59.941816743765 588 7 7 4116 28812
164	1680528 918 5241 328735 2 60 59 0 0 0 0
163	1681446 1273 5241 328735 2 60 59 0.023625 0.02625 1.546125 0.040523765625
162	1682719 918 5241 328735 2 60 59 7 7 413 2891
