file 1683468 1501513486                                         
version 2
run SinusoidalNoAttack-81-20170731-17:04:08-67021
attr CACCSpacing 5
attr attackAcc -30
attr attackPos 7
attr attackSpeed 150
attr attackStart 30
attr attacker 0
attr beaconInterval 0.1
attr configname SinusoidalNoAttack
attr controller 2
attr datetime 20170731-17:04:08
attr experiment SinusoidalNoAttack
attr fakeAcc "(0 == 4)"
attr fakePos "(0 == 2)"
attr fakeSpeed "(0 == 3)"
attr inifile omnetpp_81.ini
attr iterationvars "$controller=2, $sController=\"PLOEG\", $CACCSpacing=5, $leaderSpeed=80, $attacker=0, $attackStart=30, $attackSpeed=150, $attackPos=7, $attackAcc=-30, $0=2, $1=0.5, $nCars=8, $platoonSize=8, $nLanes=1, $beaconInterval=0.1, $priority=2, $packetSize=200, $ploegH=0.5, $leaderHeadway=1.2, $fakeSpeed=(0 == 3), $fakeAcc=(0 == 4), $fakePos=(0 == 2)"
attr iterationvarsf controller=2,sController=PLOEG,CACCSpacing=5,leaderSpeed=80,attacker=0,attackStart=30,attackSpeed=150,attackPos=7,attackAcc=-30,2,0.5,nCars=8,platoonSize=8,nLanes=1,beaconInterval=0.1,priority=2,packetSize=200,ploegH=0.5,leaderHeadway=1.2,fakeSpeed=(0_==_3),fakeAcc=(0_==_4),fakePos=(0_==_2)-
attr leaderHeadway 1.2
attr leaderSpeed 80
attr measurement "$controller=2, $sController=\"PLOEG\", $CACCSpacing=5, $leaderSpeed=80, $attacker=0, $attackStart=30, $attackSpeed=150, $attackPos=7, $attackAcc=-30, $0=2, $1=0.5, $nCars=8, $platoonSize=8, $nLanes=1, $beaconInterval=0.1, $priority=2, $packetSize=200, $ploegH=0.5, $leaderHeadway=1.2, $fakeSpeed=(0 == 3), $fakeAcc=(0 == 4), $fakePos=(0 == 2)"
attr nCars 8
attr nLanes 1
attr network scenario
attr packetSize 200
attr platoonSize 8
attr ploegH 0.5
attr priority 2
attr processid 67021
attr repetition 1
attr replication #1
attr resultdir results
attr runnumber 81
attr sController "\"PLOEG\""
attr seedset 1
param **.coreDebug false
param **.debug false
param **.headway 0.1s
param **.numberOfCars 8
param **.numberOfCarsPerPlatoon 8
param **.numberOfLanes 1
param **.numericController 2
param **.traffic.nCars 8
param **.traffic.nLanes 1
param **.traffic.platoonInsertDistance 2m
param **.traffic.platoonInsertHeadway 0.5s
param **.traffic.platoonInsertSpeed 80kmph
param **.traffic.platoonInsertTime "1 s"
param **.traffic.platoonLeaderHeadway 1.2s
param **.traffic.platoonSize 8
param **.traffic.platooningVType "\"vtypeauto\""
param **.traffic_type "\"PlatoonsTrafficManager\""
param *.**.nic.mac1609_4.bitrate 6Mbps
param *.**.nic.mac1609_4.txPower 100mW
param *.**.nic.mac1609_4.useServiceChannel false
param *.**.nic.phy80211p.analogueModels "xmldoc(\"config.xml\")"
param *.**.nic.phy80211p.decider "xmldoc(\"config.xml\")"
param *.**.nic.phy80211p.maxTXPower 100mW
param *.**.nic.phy80211p.sensitivity -94dBm
param *.**.nic.phy80211p.thermalNoise -95dBm
param *.**.nic.phy80211p.usePropagationDelay true
param *.**.nic.phy80211p.useThermalNoise true
param *.annotations.draw false
param *.connectionManager.alpha 2.0
param *.connectionManager.carrierFrequency "5.890e9 Hz"
param *.connectionManager.pMax 100mW
param *.connectionManager.sat -94dBm
param *.connectionManager.sendDirect true
param *.manager.autoShutdown true
param *.manager.commandLine "\"sumo --remote-port $port --seed $seed --configuration-file $configFile\""
param *.manager.configFile "\"./sumocfg/freeway.sumo.cfg\""
param *.manager.host "\"localhost\""
param *.manager.margin 25
param *.manager.moduleDisplayString "\"\""
param *.manager.moduleName "\"node\""
param *.manager.moduleType "\"Car\""
param *.manager.updateInterval 0.01s
param *.node[*].appl.attackStart 30s
param *.node[*].appl.attackerType 0
param *.node[*].appl.simulationDuration "60 s"
param *.node[*].appl_type "\"SimplePlatooningApp\""
param *.node[*].helper.nCars 8
param *.node[*].helper.nLanes 1
param *.node[*].helper.platoonSize 8
param *.node[*].helper_type "\"PositionHelper\""
param *.node[*].mobility.x 0
param *.node[*].mobility.y 0
param *.node[*].mobility.z 1.895
param *.node[*].prot.attackStart 30s
param *.node[*].prot.attackerType 0
param *.node[*].prot.attackingNode 3
param *.node[*].prot.beaconingInterval 0.1s
param *.node[*].prot.fakeAcc "(0 == 4)"
param *.node[*].prot.fakePos "(0 == 2)"
param *.node[*].prot.fakeSpeed "(0 == 3)"
param *.node[*].prot.maliciousAcc "-30 mpss"
param *.node[*].prot.maliciousSpeed 150kmph
param *.node[*].prot.packetSize 200
param *.node[*].prot.priority 2
param *.node[*].prot.shiftX "7 m"
param *.node[*].prot.useControllerAcceleration true
param *.node[*].protocol_type "\"SimplePlatooningBeaconing\""
param *.node[*].scenario.accHeadway 0.1s
param *.node[*].scenario.caccC1 0.5
param *.node[*].scenario.caccOmegaN "0.2 Hz"
param *.node[*].scenario.caccSpacing 5m
param *.node[*].scenario.caccXi 1
param *.node[*].scenario.controller "\"PLOEG\""
param *.node[*].scenario.engineTau "0.5 s"
param *.node[*].scenario.leaderHeadway 1.2s
param *.node[*].scenario.leaderOscillationFrequency "0.2 Hz"
param *.node[*].scenario.leaderSpeed 80kmph
param *.node[*].scenario.oscillationAmplitude "10 kmph"
param *.node[*].scenario.ploegH 0.5s
param *.node[*].scenario.ploegKd 0.7
param *.node[*].scenario.ploegKp 0.2
param *.node[*].scenario.startOscillating "5 s"
param *.node[*].scenario.useRealisticEngine false
param *.node[*].scenario_type "\"SinusoidalScenario\""
param *.node[*].unicast.packetLossRate 0
param *.obstacles.debug false
param *.playgroundSizeX 65000m
param *.playgroundSizeY 25000m
param *.playgroundSizeZ 50m
param *.world.use2D false
param *.world.useTorus false

vector 0  scenario.node[0].appl  distance  ETV
vector 1  scenario.node[0].appl  relativeSpeed  ETV
vector 2  scenario.node[0].appl  nodeId  ETV
vector 6  scenario.node[0].appl  acceleration  ETV
vector 7  scenario.node[0].appl  controllerAcceleration  ETV
vector 3  scenario.node[0].appl  speed  ETV
vector 4  scenario.node[0].appl  posx  ETV
vector 5  scenario.node[0].appl  posy  ETV
vector 22  scenario.node[1].appl  distance  ETV
vector 23  scenario.node[1].appl  relativeSpeed  ETV
vector 24  scenario.node[1].appl  nodeId  ETV
vector 28  scenario.node[1].appl  acceleration  ETV
vector 29  scenario.node[1].appl  controllerAcceleration  ETV
vector 25  scenario.node[1].appl  speed  ETV
vector 26  scenario.node[1].appl  posx  ETV
vector 27  scenario.node[1].appl  posy  ETV
vector 44  scenario.node[2].appl  distance  ETV
vector 45  scenario.node[2].appl  relativeSpeed  ETV
vector 46  scenario.node[2].appl  nodeId  ETV
vector 50  scenario.node[2].appl  acceleration  ETV
vector 51  scenario.node[2].appl  controllerAcceleration  ETV
vector 47  scenario.node[2].appl  speed  ETV
vector 48  scenario.node[2].appl  posx  ETV
vector 49  scenario.node[2].appl  posy  ETV
vector 66  scenario.node[3].appl  distance  ETV
vector 67  scenario.node[3].appl  relativeSpeed  ETV
vector 68  scenario.node[3].appl  nodeId  ETV
vector 72  scenario.node[3].appl  acceleration  ETV
vector 73  scenario.node[3].appl  controllerAcceleration  ETV
vector 69  scenario.node[3].appl  speed  ETV
vector 70  scenario.node[3].appl  posx  ETV
vector 71  scenario.node[3].appl  posy  ETV
vector 88  scenario.node[4].appl  distance  ETV
vector 89  scenario.node[4].appl  relativeSpeed  ETV
vector 90  scenario.node[4].appl  nodeId  ETV
vector 94  scenario.node[4].appl  acceleration  ETV
vector 95  scenario.node[4].appl  controllerAcceleration  ETV
vector 91  scenario.node[4].appl  speed  ETV
vector 92  scenario.node[4].appl  posx  ETV
vector 93  scenario.node[4].appl  posy  ETV
vector 110  scenario.node[5].appl  distance  ETV
vector 111  scenario.node[5].appl  relativeSpeed  ETV
vector 112  scenario.node[5].appl  nodeId  ETV
vector 116  scenario.node[5].appl  acceleration  ETV
vector 117  scenario.node[5].appl  controllerAcceleration  ETV
vector 113  scenario.node[5].appl  speed  ETV
vector 114  scenario.node[5].appl  posx  ETV
vector 115  scenario.node[5].appl  posy  ETV
vector 132  scenario.node[6].appl  distance  ETV
vector 133  scenario.node[6].appl  relativeSpeed  ETV
vector 134  scenario.node[6].appl  nodeId  ETV
vector 138  scenario.node[6].appl  acceleration  ETV
vector 139  scenario.node[6].appl  controllerAcceleration  ETV
vector 135  scenario.node[6].appl  speed  ETV
vector 136  scenario.node[6].appl  posx  ETV
vector 137  scenario.node[6].appl  posy  ETV
vector 154  scenario.node[7].appl  distance  ETV
vector 155  scenario.node[7].appl  relativeSpeed  ETV
vector 156  scenario.node[7].appl  nodeId  ETV
vector 160  scenario.node[7].appl  acceleration  ETV
vector 161  scenario.node[7].appl  controllerAcceleration  ETV
vector 157  scenario.node[7].appl  speed  ETV
vector 158  scenario.node[7].appl  posx  ETV
vector 159  scenario.node[7].appl  posy  ETV
vector 58  scenario.node[2].prot  frontDelay  ETV
vector 56  scenario.node[2].prot  frontDelayId  ETV
vector 102  scenario.node[4].prot  frontDelay  ETV
vector 100  scenario.node[4].prot  frontDelayId  ETV
vector 146  scenario.node[6].prot  frontDelay  ETV
vector 144  scenario.node[6].prot  frontDelayId  ETV
vector 168  scenario.node[7].prot  frontDelay  ETV
vector 166  scenario.node[7].prot  frontDelayId  ETV
vector 124  scenario.node[5].prot  frontDelay  ETV
vector 122  scenario.node[5].prot  frontDelayId  ETV
vector 35  scenario.node[1].prot  leaderDelay  ETV
vector 33  scenario.node[1].prot  leaderDelayId  ETV
vector 36  scenario.node[1].prot  frontDelay  ETV
vector 34  scenario.node[1].prot  frontDelayId  ETV
vector 57  scenario.node[2].prot  leaderDelay  ETV
vector 55  scenario.node[2].prot  leaderDelayId  ETV
vector 79  scenario.node[3].prot  leaderDelay  ETV
vector 77  scenario.node[3].prot  leaderDelayId  ETV
vector 101  scenario.node[4].prot  leaderDelay  ETV
vector 99  scenario.node[4].prot  leaderDelayId  ETV
vector 123  scenario.node[5].prot  leaderDelay  ETV
vector 121  scenario.node[5].prot  leaderDelayId  ETV
vector 145  scenario.node[6].prot  leaderDelay  ETV
vector 143  scenario.node[6].prot  leaderDelayId  ETV
vector 167  scenario.node[7].prot  leaderDelay  ETV
vector 165  scenario.node[7].prot  leaderDelayId  ETV
vector 80  scenario.node[3].prot  frontDelay  ETV
vector 78  scenario.node[3].prot  frontDelayId  ETV
vector 8  scenario.node[0].prot  nodeId  ETV
vector 9  scenario.node[0].prot  busyTime  ETV
vector 10  scenario.node[0].prot  collisions  ETV
vector 30  scenario.node[1].prot  nodeId  ETV
vector 31  scenario.node[1].prot  busyTime  ETV
vector 32  scenario.node[1].prot  collisions  ETV
vector 52  scenario.node[2].prot  nodeId  ETV
vector 53  scenario.node[2].prot  busyTime  ETV
vector 54  scenario.node[2].prot  collisions  ETV
vector 74  scenario.node[3].prot  nodeId  ETV
vector 75  scenario.node[3].prot  busyTime  ETV
vector 76  scenario.node[3].prot  collisions  ETV
vector 96  scenario.node[4].prot  nodeId  ETV
vector 97  scenario.node[4].prot  busyTime  ETV
vector 98  scenario.node[4].prot  collisions  ETV
vector 118  scenario.node[5].prot  nodeId  ETV
vector 119  scenario.node[5].prot  busyTime  ETV
vector 120  scenario.node[5].prot  collisions  ETV
vector 140  scenario.node[6].prot  nodeId  ETV
vector 141  scenario.node[6].prot  busyTime  ETV
vector 142  scenario.node[6].prot  collisions  ETV
vector 162  scenario.node[7].prot  nodeId  ETV
vector 163  scenario.node[7].prot  busyTime  ETV
vector 164  scenario.node[7].prot  collisions  ETV
7	11221 13855 232 328174 1.11 59.91 589 -1.5 1.5 -14.445957496355 993.24092342393
6	25076 18568 232 328174 1.11 59.91 589 -1.4722746795719 1.4513434175793 -12.507252200722 675.29835178084
5	43644 12081 232 328174 1.11 59.91 589 36.55 36.55 21527.95 786846.5725
4	55725 17902 232 328174 1.11 59.91 589 154.60539321926 1465.5881905837 477966.77908101 472274579.65333
3	73627 17918 232 328174 1.11 59.91 589 20.932410304178 24.18693697487 13131.616571188 293209.28872176
1	91545 9725 232 328174 1.11 59.91 589 0 0 0 0
0	101270 10314 232 328174 1.11 59.91 589 -1 -1 -589 589
2	111584 9725 232 328174 1.11 59.91 589 0 0 0 0
10	121309 858 5168 328662 2 60 59 0 0 0 0
9	122167 1154 5168 328662 2 60 59 0.023297 0.02625 1.545797 0.040508375209
8	123321 799 5168 328662 2 60 59 0 0 0 0
29	124120 19140 233 328175 1.11 59.91 589 -1.5589915445928 1.5498333179969 -12.740303270092 771.91975886611
28	143260 19216 233 328175 1.11 59.91 589 -1.4671854423909 1.3998036914707 -6.3834500309991 541.56638898012
27	162476 12670 233 328175 1.11 59.91 589 36.55 36.55 21527.95 786846.5725
26	175146 18495 233 328175 1.11 59.91 589 137.49428634644 1448.9163150782 467863.52452482 456067142.68387
25	193641 18486 233 328175 1.11 59.91 589 21.093314832667 24.038765114494 13136.228708103 293334.34989791
23	212127 19518 233 328175 1.11 59.91 589 -0.7653873869772 0.75598109557107 -4.4870643931175 164.85159694119
22	231645 18479 233 328175 1.11 59.91 589 12.472466323719 14.085009990474 7747.34679893 102016.81398885
24	250124 10314 233 328175 1.11 59.91 589 1 1 589 589
36	260438 23713 1238 328624 1.297802712299 59.997802931505 588 0.099998902601 0.100011943799 58.799999132432 5.8799998340772
35	284151 23713 1238 328624 1.297802712299 59.997802931505 588 0.099998902601 0.100011943799 58.799999132432 5.8799998340772
34	307864 16122 1238 328624 1.297802712299 59.997802931505 588 1 1 588 588
33	323986 16122 1238 328624 1.297802712299 59.997802931505 588 1 1 588 588
32	340108 858 5169 328663 2 60 59 0 0 0 0
31	340966 1213 5169 328663 2 60 59 0.023297 0.02625 1.545797 0.040508375209
30	342179 858 5169 328663 2 60 59 1 1 59 59
51	343037 19193 234 328176 1.11 59.91 589 -1.5234273780919 1.462799891822 -5.9356617835945 589.2231953244
50	362230 19293 234 328176 1.11 59.91 589 -1.3731568105538 1.2582421862291 0.30547009520916 414.25925502851
49	381523 12670 234 328176 1.11 59.91 589 36.55 36.55 21527.95 786846.5725
48	394193 18488 234 328176 1.11 59.91 589 120.38317184448 1431.8326634486 457760.92407365 440204490.14642
47	412681 18491 234 328176 1.11 59.91 589 21.237221980068 23.910440838035 13136.737178182 293281.94186698
45	431172 19586 234 328176 1.11 59.91 589 -0.6975417214868 0.65524923860692 -0.4446355789417 113.30441643798
44	450758 18492 234 328176 1.11 59.91 589 12.584886519158 13.971157283726 7746.6106205732 101964.9062177
46	469250 10314 234 328176 1.11 59.91 589 2 2 1178 2356
58	479564 23706 832 328218 1.212435970303 59.912436184928 588 0.099998902946 0.100011942893 58.799999127851 5.8799998331611
57	503270 23719 1244 328630 1.297802769375 59.997802988311 588 0.099998902714 0.100011943656 58.799999132162 5.8799998340233
56	526989 16127 832 328218 1.212435970303 59.912436184928 588 2 2 1176 2352
55	543116 16131 1244 328630 1.297802769375 59.997802988311 588 2 2 1176 2352
54	559247 858 5170 328664 2 60 59 0 0 0 0
53	560105 1213 5170 328664 2 60 59 0.023296 0.02625 1.545796 0.040508328616
52	561318 858 5170 328664 2 60 59 2 2 118 236
73	562176 19283 235 328177 1.11 59.91 589 -1.43275962276 1.3189838010199 1.0405385368429 452.35456234335
72	581459 19353 235 328177 1.11 59.91 589 -1.2644131600069 1.1141405606178 5.2695856379064 319.44895733106
71	600812 12670 235 328177 1.11 59.91 589 36.55 36.55 21527.95 786846.5725
70	613482 18493 235 328177 1.11 59.91 589 103.27205734253 1414.4733024766 447659.24387223 424690489.10366
69	631975 18480 235 328177 1.11 59.91 589 21.354776266732 23.80857286533 13134.425392172 293121.29149535
67	650455 19583 235 328177 1.11 59.91 589 -0.64498598724035 0.58165310321252 2.3087313093425 87.180261207251
66	670038 18495 235 328177 1.11 59.91 589 12.648395132204 13.916694255268 7745.6339656991 101922.93523129
68	688533 10314 235 328177 1.11 59.91 589 3 3 1767 5301
80	698847 23710 1312 328707 1.307224826452 60.007225046065 588 0.099998902704 0.100011942248 58.799999132839 5.8799998341587
79	722557 23701 1250 328636 1.297802826452 59.997803046083 588 0.099998902702 0.100011943623 58.799999132857 5.8799998341623
78	746258 16121 1312 328707 1.307224826452 60.007225046065 588 3 3 1764 5292
77	762379 16110 1250 328636 1.297802826452 59.997803046083 588 3 3 1764 5292
76	778489 858 5171 328665 2 60 59 0 0 0 0
75	779347 1213 5171 328665 2 60 59 0.023297 0.02625 1.545797 0.040508375209
74	780560 858 5171 328665 2 60 59 3 3 177 531
95	781418 19381 236 328178 1.11 59.91 589 -1.3157130995825 1.1590127182277 5.9492578425535 346.60355022077
94	800799 19499 236 328178 1.11 59.91 589 -1.153941678843 0.97416327155457 7.3164199810812 248.16369634008
93	820298 12670 236 328178 1.11 59.91 589 36.55 36.55 21527.95 786846.5725
92	832968 18491 236 328178 1.11 59.91 589 86.160950469971 1396.9834444976 437559.41269758 409527677.69331
91	851459 18489 236 328178 1.11 59.91 589 21.457374478012 23.721216976836 13130.705190133 292908.50782633
89	869948 19547 236 328178 1.11 59.91 589 -0.58958689262505 0.51000301886329 3.6675061821385 67.578960090335
88	889495 18505 236 328178 1.11 59.91 589 12.703412659813 13.870950090875 7743.7567706076 101860.38014169
90	908000 10314 236 328178 1.11 59.91 589 4 4 2356 9424
102	918314 24304 902 328288 1.235040084456 59.935040301159 588 0.099998902807 0.100011942873 58.799999129929 5.8799998335767
101	942618 24308 1256 328642 1.297802883528 59.997803104366 588 0.099998902591 0.100011943685 58.799999134064 5.8799998344037
100	966926 16699 902 328288 1.235040084456 59.935040301159 588 4 4 2352 9408
99	983625 16130 1256 328642 1.297802883528 59.997803104366 588 4 4 2352 9408
98	999755 858 5172 328666 2 60 59 0 0 0 0
97	1000613 1213 5172 328666 2 60 59 0.023297 0.02625 1.545797 0.040508375209
96	1001826 858 5172 328666 2 60 59 4 4 236 944
117	1002684 20050 237 328179 1.11 59.91 589 -1.1995099268978 1.0169793077316 7.7715327546343 269.78077858265
116	1022734 20128 237 328179 1.11 59.91 589 -1.0511925215251 0.85223312924398 6.3969114821855 194.14134221565
115	1042862 13259 237 328179 1.11 59.91 589 36.55 36.55 21527.95 786846.5725
114	1056121 19076 237 328179 1.11 59.91 589 69.049839782715 1379.5234453439 427461.49748008 394716095.49755
113	1075197 19069 237 328179 1.11 59.91 589 21.547617946131 23.645047491679 13127.180016114 292714.41251599
111	1094266 20177 237 328179 1.11 59.91 589 -0.53713305203824 0.44629490286304 3.4520098193754 52.789803095075
110	1114443 19094 237 328179 1.11 59.91 589 12.75168723588 13.83097196249 7741.8447140173 101799.62048858
112	1133537 10903 237 328179 1.11 59.91 589 5 5 2945 14725
124	1144440 24276 1178 328558 1.297389483993 59.997389706005 588 0.099998902 0.100011942263 58.799999135238 5.8799998346385
123	1168716 24298 1262 328648 1.297802940605 59.997803162629 588 0.099998902444 0.100011943798 58.79999913525 5.8799998346409
122	1193014 16706 1178 328558 1.297389483993 59.997389706005 588 5 5 2940 14700
121	1209720 16711 1262 328648 1.297802940605 59.997803162629 588 5 5 2940 14700
120	1226431 917 5173 328667 2 60 59 0 0 0 0
119	1227348 1272 5173 328667 2 60 59 0.023297 0.02625 1.545797 0.040508375209
118	1228620 917 5173 328667 2 60 59 5 5 295 1475
139	1229537 20107 238 328180 1.11 59.91 589 -1.0923887420924 0.88937478804679 6.505472997917 210.44995832287
138	1249644 20137 238 328180 1.11 59.91 589 -0.95900141683316 0.74719698234098 3.4610346512679 151.12197932605
137	1269781 13259 238 328180 1.11 59.91 589 36.55 36.55 21527.95 786846.5725
136	1283040 19081 238 328180 1.11 59.91 589 51.93872718811 1362.2078418922 417364.88807754 380253912.79782
135	1302121 19077 238 328180 1.11 59.91 589 21.627675584182 23.577261676627 13125.029889997 292590.64160246
133	1321198 20231 238 328180 1.11 59.91 589 -0.48977944613483 0.39131817916525 2.086157001785 41.140343104076
132	1341429 19087 238 328180 1.11 59.91 589 12.794315189899 13.795607353695 7740.5664000181 101758.05999041
134	1360516 10903 238 328180 1.11 59.91 589 6 6 3534 21204
146	1371419 24258 970 328350 1.248713198609 59.948713417194 588 0.099998902537 0.100011941832 58.799999131811 5.8799998339531
145	1395677 24281 1268 328654 1.297802997681 59.997803220465 588 0.09999890232 0.100011943917 58.79999913601 5.8799998347929
144	1419958 16697 970 328350 1.248713198609 59.948713417194 588 6 6 3528 21168
143	1436655 16727 1268 328654 1.297802997681 59.997803220465 588 6 6 3528 21168
142	1453382 917 5174 328668 2 60 59 0 0 0 0
141	1454299 1272 5174 328668 2 60 59 0.023297 0.02625 1.545797 0.040508375209
140	1455571 917 5174 328668 2 60 59 6 6 354 2124
161	1456488 20112 239 328181 1.11 59.91 589 -0.99893996675121 0.7810747651805 3.2699345058952 164.0518943981
160	1476600 20167 239 328181 1.11 59.91 589 -0.87860796868569 0.65752666281611 -0.028897194402333 117.0987349575
159	1496767 13259 239 328181 1.11 59.91 589 36.55 36.55 21527.95 786846.5725
158	1510026 19074 239 328181 1.11 59.91 589 34.827616024017 1345.0750458333 407268.65944787 366138515.78155
157	1529100 19087 239 328181 1.11 59.91 589 21.697891306772 23.518639739145 13124.690564903 292554.66741363
155	1548187 20209 239 328181 1.11 59.91 589 -0.4481723471331 0.34426513535396 0.30471474735024 31.892601619146
154	1568396 19088 239 328181 1.11 59.91 589 12.83164124733 13.764813226177 7740.2218431741 101743.09224214
156	1587484 10903 239 328181 1.11 59.91 589 7 7 4123 28861
168	1598387 24289 1040 328420 1.263894255686 59.963894474401 588 0.099998902479 0.100011941881 58.799999131941 5.879999833979
167	1622676 24284 1274 328660 1.297803054758 59.997803277707 588 0.099998902258 0.100011944013 58.799999136175 5.8799998348259
166	1646960 16696 1040 328420 1.263894255686 59.963894474401 588 7 7 4116 28812
165	1663656 16706 1274 328660 1.297803054758 59.997803277707 588 7 7 4116 28812
164	1680362 917 5175 328669 2 60 59 0 0 0 0
163	1681279 1272 5175 328669 2 60 59 0.023297 0.02625 1.545797 0.040508375209
162	1682551 917 5175 328669 2 60 59 7 7 413 2891
