file 1681309 1501513194                                         
version 2
run SinusoidalNoAttack-65-20170731-16:59:22-104840
attr CACCSpacing 20
attr attackAcc -30
attr attackPos 7
attr attackSpeed 150
attr attackStart 30
attr attacker 0
attr beaconInterval 0.1
attr configname SinusoidalNoAttack
attr controller 1
attr datetime 20170731-16:59:22
attr experiment SinusoidalNoAttack
attr fakeAcc "(0 == 4)"
attr fakePos "(0 == 2)"
attr fakeSpeed "(0 == 3)"
attr inifile omnetpp_65.ini
attr iterationvars "$controller=1, $sController=\"CACC\", $CACCSpacing=20, $leaderSpeed=120, $attacker=0, $attackStart=30, $attackSpeed=150, $attackPos=7, $attackAcc=-30, $0=20, $1=0, $nCars=8, $platoonSize=8, $nLanes=1, $beaconInterval=0.1, $priority=2, $packetSize=200, $ploegH=0.5, $leaderHeadway=1.2, $fakeSpeed=(0 == 3), $fakeAcc=(0 == 4), $fakePos=(0 == 2)"
attr iterationvarsf controller=1,sController=CACC,CACCSpacing=20,leaderSpeed=120,attacker=0,attackStart=30,attackSpeed=150,attackPos=7,attackAcc=-30,20,0,nCars=8,platoonSize=8,nLanes=1,beaconInterval=0.1,priority=2,packetSize=200,ploegH=0.5,leaderHeadway=1.2,fakeSpeed=(0_==_3),fakeAcc=(0_==_4),fakePos=(0_==_2)-
attr leaderHeadway 1.2
attr leaderSpeed 120
attr measurement "$controller=1, $sController=\"CACC\", $CACCSpacing=20, $leaderSpeed=120, $attacker=0, $attackStart=30, $attackSpeed=150, $attackPos=7, $attackAcc=-30, $0=20, $1=0, $nCars=8, $platoonSize=8, $nLanes=1, $beaconInterval=0.1, $priority=2, $packetSize=200, $ploegH=0.5, $leaderHeadway=1.2, $fakeSpeed=(0 == 3), $fakeAcc=(0 == 4), $fakePos=(0 == 2)"
attr nCars 8
attr nLanes 1
attr network scenario
attr packetSize 200
attr platoonSize 8
attr ploegH 0.5
attr priority 2
attr processid 104840
attr repetition 0
attr replication #0
attr resultdir results
attr runnumber 65
attr sController "\"CACC\""
attr seedset 0
param **.coreDebug false
param **.debug false
param **.headway 0.1s
param **.numberOfCars 8
param **.numberOfCarsPerPlatoon 8
param **.numberOfLanes 1
param **.numericController 1
param **.traffic.nCars 8
param **.traffic.nLanes 1
param **.traffic.platoonInsertDistance 20m
param **.traffic.platoonInsertHeadway 0s
param **.traffic.platoonInsertSpeed 120kmph
param **.traffic.platoonInsertTime "1 s"
param **.traffic.platoonLeaderHeadway 1.2s
param **.traffic.platoonSize 8
param **.traffic.platooningVType "\"vtypeauto\""
param **.traffic_type "\"PlatoonsTrafficManager\""
param *.**.nic.mac1609_4.bitrate 6Mbps
param *.**.nic.mac1609_4.txPower 100mW
param *.**.nic.mac1609_4.useServiceChannel false
param *.**.nic.phy80211p.analogueModels "xmldoc(\"config.xml\")"
param *.**.nic.phy80211p.decider "xmldoc(\"config.xml\")"
param *.**.nic.phy80211p.maxTXPower 100mW
param *.**.nic.phy80211p.sensitivity -94dBm
param *.**.nic.phy80211p.thermalNoise -95dBm
param *.**.nic.phy80211p.usePropagationDelay true
param *.**.nic.phy80211p.useThermalNoise true
param *.annotations.draw false
param *.connectionManager.alpha 2.0
param *.connectionManager.carrierFrequency "5.890e9 Hz"
param *.connectionManager.pMax 100mW
param *.connectionManager.sat -94dBm
param *.connectionManager.sendDirect true
param *.manager.autoShutdown true
param *.manager.commandLine "\"sumo --remote-port $port --seed $seed --configuration-file $configFile\""
param *.manager.configFile "\"./sumocfg/freeway.sumo.cfg\""
param *.manager.host "\"localhost\""
param *.manager.margin 25
param *.manager.moduleDisplayString "\"\""
param *.manager.moduleName "\"node\""
param *.manager.moduleType "\"Car\""
param *.manager.updateInterval 0.01s
param *.node[*].appl.attackStart 30s
param *.node[*].appl.attackerType 0
param *.node[*].appl.simulationDuration "60 s"
param *.node[*].appl_type "\"SimplePlatooningApp\""
param *.node[*].helper.nCars 8
param *.node[*].helper.nLanes 1
param *.node[*].helper.platoonSize 8
param *.node[*].helper_type "\"PositionHelper\""
param *.node[*].mobility.x 0
param *.node[*].mobility.y 0
param *.node[*].mobility.z 1.895
param *.node[*].prot.attackStart 30s
param *.node[*].prot.attackerType 0
param *.node[*].prot.attackingNode 3
param *.node[*].prot.beaconingInterval 0.1s
param *.node[*].prot.fakeAcc "(0 == 4)"
param *.node[*].prot.fakePos "(0 == 2)"
param *.node[*].prot.fakeSpeed "(0 == 3)"
param *.node[*].prot.maliciousAcc "-30 mpss"
param *.node[*].prot.maliciousSpeed 150kmph
param *.node[*].prot.packetSize 200
param *.node[*].prot.priority 2
param *.node[*].prot.shiftX "7 m"
param *.node[*].prot.useControllerAcceleration true
param *.node[*].protocol_type "\"SimplePlatooningBeaconing\""
param *.node[*].scenario.accHeadway 0.1s
param *.node[*].scenario.caccC1 0.5
param *.node[*].scenario.caccOmegaN "0.2 Hz"
param *.node[*].scenario.caccSpacing 20m
param *.node[*].scenario.caccXi 1
param *.node[*].scenario.controller "\"CACC\""
param *.node[*].scenario.engineTau "0.5 s"
param *.node[*].scenario.leaderHeadway 1.2s
param *.node[*].scenario.leaderOscillationFrequency "0.2 Hz"
param *.node[*].scenario.leaderSpeed 120kmph
param *.node[*].scenario.oscillationAmplitude "10 kmph"
param *.node[*].scenario.ploegH 0.5s
param *.node[*].scenario.ploegKd 0.7
param *.node[*].scenario.ploegKp 0.2
param *.node[*].scenario.startOscillating "5 s"
param *.node[*].scenario.useRealisticEngine false
param *.node[*].scenario_type "\"SinusoidalScenario\""
param *.node[*].unicast.packetLossRate 0
param *.obstacles.debug false
param *.playgroundSizeX 65000m
param *.playgroundSizeY 25000m
param *.playgroundSizeZ 50m
param *.world.use2D false
param *.world.useTorus false

vector 0  scenario.node[0].appl  distance  ETV
vector 1  scenario.node[0].appl  relativeSpeed  ETV
vector 2  scenario.node[0].appl  nodeId  ETV
vector 6  scenario.node[0].appl  acceleration  ETV
vector 7  scenario.node[0].appl  controllerAcceleration  ETV
vector 3  scenario.node[0].appl  speed  ETV
vector 4  scenario.node[0].appl  posx  ETV
vector 5  scenario.node[0].appl  posy  ETV
vector 22  scenario.node[1].appl  distance  ETV
vector 23  scenario.node[1].appl  relativeSpeed  ETV
vector 24  scenario.node[1].appl  nodeId  ETV
vector 28  scenario.node[1].appl  acceleration  ETV
vector 29  scenario.node[1].appl  controllerAcceleration  ETV
vector 25  scenario.node[1].appl  speed  ETV
vector 26  scenario.node[1].appl  posx  ETV
vector 27  scenario.node[1].appl  posy  ETV
vector 44  scenario.node[2].appl  distance  ETV
vector 45  scenario.node[2].appl  relativeSpeed  ETV
vector 46  scenario.node[2].appl  nodeId  ETV
vector 50  scenario.node[2].appl  acceleration  ETV
vector 51  scenario.node[2].appl  controllerAcceleration  ETV
vector 47  scenario.node[2].appl  speed  ETV
vector 48  scenario.node[2].appl  posx  ETV
vector 49  scenario.node[2].appl  posy  ETV
vector 66  scenario.node[3].appl  distance  ETV
vector 67  scenario.node[3].appl  relativeSpeed  ETV
vector 68  scenario.node[3].appl  nodeId  ETV
vector 72  scenario.node[3].appl  acceleration  ETV
vector 73  scenario.node[3].appl  controllerAcceleration  ETV
vector 69  scenario.node[3].appl  speed  ETV
vector 70  scenario.node[3].appl  posx  ETV
vector 71  scenario.node[3].appl  posy  ETV
vector 88  scenario.node[4].appl  distance  ETV
vector 89  scenario.node[4].appl  relativeSpeed  ETV
vector 90  scenario.node[4].appl  nodeId  ETV
vector 94  scenario.node[4].appl  acceleration  ETV
vector 95  scenario.node[4].appl  controllerAcceleration  ETV
vector 91  scenario.node[4].appl  speed  ETV
vector 92  scenario.node[4].appl  posx  ETV
vector 93  scenario.node[4].appl  posy  ETV
vector 110  scenario.node[5].appl  distance  ETV
vector 111  scenario.node[5].appl  relativeSpeed  ETV
vector 112  scenario.node[5].appl  nodeId  ETV
vector 116  scenario.node[5].appl  acceleration  ETV
vector 117  scenario.node[5].appl  controllerAcceleration  ETV
vector 113  scenario.node[5].appl  speed  ETV
vector 114  scenario.node[5].appl  posx  ETV
vector 115  scenario.node[5].appl  posy  ETV
vector 132  scenario.node[6].appl  distance  ETV
vector 133  scenario.node[6].appl  relativeSpeed  ETV
vector 134  scenario.node[6].appl  nodeId  ETV
vector 138  scenario.node[6].appl  acceleration  ETV
vector 139  scenario.node[6].appl  controllerAcceleration  ETV
vector 135  scenario.node[6].appl  speed  ETV
vector 136  scenario.node[6].appl  posx  ETV
vector 137  scenario.node[6].appl  posy  ETV
vector 154  scenario.node[7].appl  distance  ETV
vector 155  scenario.node[7].appl  relativeSpeed  ETV
vector 156  scenario.node[7].appl  nodeId  ETV
vector 160  scenario.node[7].appl  acceleration  ETV
vector 161  scenario.node[7].appl  controllerAcceleration  ETV
vector 157  scenario.node[7].appl  speed  ETV
vector 158  scenario.node[7].appl  posx  ETV
vector 159  scenario.node[7].appl  posy  ETV
vector 80  scenario.node[3].prot  frontDelay  ETV
vector 78  scenario.node[3].prot  frontDelayId  ETV
vector 58  scenario.node[2].prot  frontDelay  ETV
vector 56  scenario.node[2].prot  frontDelayId  ETV
vector 168  scenario.node[7].prot  frontDelay  ETV
vector 166  scenario.node[7].prot  frontDelayId  ETV
vector 35  scenario.node[1].prot  leaderDelay  ETV
vector 33  scenario.node[1].prot  leaderDelayId  ETV
vector 36  scenario.node[1].prot  frontDelay  ETV
vector 34  scenario.node[1].prot  frontDelayId  ETV
vector 57  scenario.node[2].prot  leaderDelay  ETV
vector 55  scenario.node[2].prot  leaderDelayId  ETV
vector 79  scenario.node[3].prot  leaderDelay  ETV
vector 77  scenario.node[3].prot  leaderDelayId  ETV
vector 101  scenario.node[4].prot  leaderDelay  ETV
vector 99  scenario.node[4].prot  leaderDelayId  ETV
vector 123  scenario.node[5].prot  leaderDelay  ETV
vector 121  scenario.node[5].prot  leaderDelayId  ETV
vector 145  scenario.node[6].prot  leaderDelay  ETV
vector 143  scenario.node[6].prot  leaderDelayId  ETV
vector 167  scenario.node[7].prot  leaderDelay  ETV
vector 165  scenario.node[7].prot  leaderDelayId  ETV
vector 124  scenario.node[5].prot  frontDelay  ETV
vector 122  scenario.node[5].prot  frontDelayId  ETV
vector 102  scenario.node[4].prot  frontDelay  ETV
vector 100  scenario.node[4].prot  frontDelayId  ETV
vector 146  scenario.node[6].prot  frontDelay  ETV
vector 144  scenario.node[6].prot  frontDelayId  ETV
vector 8  scenario.node[0].prot  nodeId  ETV
vector 9  scenario.node[0].prot  busyTime  ETV
vector 10  scenario.node[0].prot  collisions  ETV
vector 30  scenario.node[1].prot  nodeId  ETV
vector 31  scenario.node[1].prot  busyTime  ETV
vector 32  scenario.node[1].prot  collisions  ETV
vector 52  scenario.node[2].prot  nodeId  ETV
vector 53  scenario.node[2].prot  busyTime  ETV
vector 54  scenario.node[2].prot  collisions  ETV
vector 74  scenario.node[3].prot  nodeId  ETV
vector 75  scenario.node[3].prot  busyTime  ETV
vector 76  scenario.node[3].prot  collisions  ETV
vector 96  scenario.node[4].prot  nodeId  ETV
vector 97  scenario.node[4].prot  busyTime  ETV
vector 98  scenario.node[4].prot  collisions  ETV
vector 118  scenario.node[5].prot  nodeId  ETV
vector 119  scenario.node[5].prot  busyTime  ETV
vector 120  scenario.node[5].prot  collisions  ETV
vector 140  scenario.node[6].prot  nodeId  ETV
vector 141  scenario.node[6].prot  busyTime  ETV
vector 142  scenario.node[6].prot  collisions  ETV
vector 162  scenario.node[7].prot  nodeId  ETV
vector 163  scenario.node[7].prot  busyTime  ETV
vector 164  scenario.node[7].prot  collisions  ETV
7	11225 13859 232 328174 1.11 59.91 589 -1.5 1.5 -14.445953361693 993.24092335941
6	25084 18579 232 328174 1.11 59.91 589 -1.4722746795918 1.4513434175775 -12.507247963452 675.29835166926
5	43663 12081 232 328174 1.11 59.91 589 36.55 36.55 21527.95 786846.5725
4	55744 17904 232 328174 1.11 59.91 589 204.77319831888 2169.0893286388 699922.28273047 1021414871.8529
3	73648 17913 232 328174 1.11 59.91 589 32.043521415285 35.298048086563 19676.061011579 657739.0394163
1	91561 9725 232 328174 1.11 59.91 589 0 0 0 0
0	101286 10314 232 328174 1.11 59.91 589 -1 -1 -589 589
2	111600 9725 232 328174 1.11 59.91 589 0 0 0 0
10	121325 858 5102 328596 2 60 59 0 0 0 0
9	122183 1154 5102 328596 2 60 59 0.022969 0.02625 1.545469 0.040493199961
8	123337 799 5102 328596 2 60 59 0 0 0 0
29	124136 17344 233 328175 1.11 59.91 589 -1.5112642280618 1.5120701292979 -15.602418192677 992.06669141801
28	141480 19145 233 328175 1.11 59.91 589 -1.4820302872479 1.4492283737809 -12.20313768273 674.69257776277
27	160625 12670 233 328175 1.11 59.91 589 36.55 36.55 21527.95 786846.5725
26	173295 18494 233 328175 1.11 59.91 589 180.77319831848 2145.0631402045 685750.6255448 988054486.7809
25	191789 18506 233 328175 1.11 59.91 589 32.040515395794 35.296982494638 19675.812230564 657722.08339453
23	210295 20063 233 328175 1.11 59.91 589 -0.073512150295336 0.077026298752259 0.3738534945342 1.7619270350588
22	230358 18489 233 328175 1.11 59.91 589 19.939712513287 20.179296883697 11815.652210051 237030.41032146
24	248847 10314 233 328175 1.11 59.91 589 1 1 589 589
36	259161 23647 1032 328418 1.254913282269 59.954925074266 588 0.099909240161 0.100091242722 58.800025033547 5.8800060404602
35	282808 23647 1032 328418 1.254913282269 59.954925074266 588 0.099909240161 0.100091242722 58.800025033547 5.8800060404602
34	306455 16110 1032 328418 1.254913282269 59.954925074266 588 1 1 588 588
33	322565 16110 1032 328418 1.254913282269 59.954925074266 588 1 1 588 588
32	338675 858 5103 328597 2 60 59 0 0 0 0
31	339533 1213 5103 328597 2 60 59 0.022969 0.02625 1.545469 0.040493199961
30	340746 858 5103 328597 2 60 59 1 1 59 59
51	341604 19045 234 328176 1.11 59.91 589 -1.4951715950905 1.4969403277791 -15.574986662513 971.91297359467
50	360649 19152 234 328176 1.11 59.91 589 -1.4749478773638 1.4483793278167 -11.883471460702 671.91386108345
49	379801 12670 234 328176 1.11 59.91 589 36.55 36.55 21527.95 786846.5725
48	392471 18487 234 328176 1.11 59.91 589 156.77319831848 2121.1390055504 671627.5623651 955517579.73292
47	410958 18496 234 328176 1.11 59.91 589 32.04421704299 35.293979140941 19676.58128686 657771.15545869
45	429454 20090 234 328176 1.11 59.91 589 -0.042015734767411 0.035321620374788 -0.64702491873599 0.40721635133602
44	449544 18462 234 328176 1.11 59.91 589 19.918027118875 20.070368743914 11767.078560823 235084.12685667
46	468006 10314 234 328176 1.11 59.91 589 2 2 1178 2356
58	478320 23609 900 328280 1.22965940166 59.929658193794 588 0.099987240007 0.100000243928 58.799999033684 5.8799998085611
57	501929 23660 1038 328424 1.254913362325 59.954925154065 588 0.09990924017 0.100091242737 58.80002503329 5.8800060404088
56	525589 16073 900 328280 1.22965940166 59.929658193794 588 2 2 1176 2352
55	541662 16109 1038 328424 1.254913362325 59.954925154065 588 2 2 1176 2352
54	557771 858 5104 328598 2 60 59 0 0 0 0
53	558629 1213 5104 328598 2 60 59 0.022969 0.02625 1.545469 0.040493199961
52	559842 858 5104 328598 2 60 59 2 2 118 236
73	560700 19034 235 328177 1.11 59.91 589 -1.4890347539023 1.489280983073 -15.518597166389 946.30555363437
72	579734 19149 235 328177 1.11 59.91 589 -1.4633940740261 1.4358250200651 -11.635828690214 660.08354722707
71	598883 12670 235 328177 1.11 59.91 589 36.55 36.55 21527.95 786846.5725
70	611553 18499 235 328177 1.11 59.91 589 132.77319831848 2097.1566844261 657493.01452324 923623097.97187
69	630052 18491 235 328177 1.11 59.91 589 32.057007897644 35.283814991365 19676.766987074 657776.105407
67	648543 20312 235 328177 1.11 59.91 589 -0.022576858870288 0.018794902050445 -0.066865499570483 0.075435326708982
66	668855 18482 235 328177 1.11 59.91 589 19.96570909697 20.045084772019 11778.551555866 235542.25318963
68	687337 10314 235 328177 1.11 59.91 589 3 3 1767 5301
80	697651 23666 832 328218 1.213906321605 59.913905114187 588 0.099987240155 0.100000243938 58.799999034132 5.8799998086506
79	721317 23637 1044 328430 1.25491344238 59.954925234058 588 0.099909240172 0.100091242747 58.800025033228 5.8800060403964
78	744954 16119 832 328218 1.213906321605 59.913905114187 588 3 3 1764 5292
77	761073 16088 1044 328430 1.25491344238 59.954925234058 588 3 3 1764 5292
76	777161 858 5105 328599 2 60 59 0 0 0 0
75	778019 1213 5105 328599 2 60 59 0.022968 0.02625 1.545468 0.040493154024
74	779232 858 5105 328599 2 60 59 3 3 177 531
95	780090 19018 236 328178 1.11 59.91 589 -1.482146826564 1.4820137081882 -15.383154223066 924.80662936141
94	799108 19116 236 328178 1.11 59.91 589 -1.4529610416716 1.4260514163297 -11.505792514366 650.28144099616
93	818224 12670 236 328178 1.11 59.91 589 36.55 36.55 21527.95 786846.5725
92	830894 18498 236 328178 1.11 59.91 589 108.77319831848 2073.1605290496 643358.06723497 892406688.40857
91	849392 18495 236 328178 1.11 59.91 589 32.06737118489 35.271793292196 19676.809976034 657772.83632551
89	867887 20382 236 328178 1.11 59.91 589 -0.013924732676713 0.013417886897351 0.073369326716005 0.039717776322309
88	888269 18479 236 328178 1.11 59.91 589 19.984402047124 20.024761293099 11778.94814805 235557.97098512
90	906748 10314 236 328178 1.11 59.91 589 4 4 2356 9424
102	917062 24253 1246 328641 1.303564162878 60.003562954495 588 0.099987240336 0.100000243925 58.799999033167 5.8799998084576
101	941315 24250 1050 328436 1.254913522436 59.954925314099 588 0.099909240171 0.100091242749 58.800025033213 5.8800060403934
100	965565 16713 1246 328641 1.303564162878 60.003562954495 588 4 4 2352 9408
99	982278 16119 1050 328436 1.254913522436 59.954925314099 588 4 4 2352 9408
98	998397 858 5106 328600 2 60 59 0 0 0 0
97	999255 1213 5106 328600 2 60 59 0.022969 0.02625 1.545469 0.040493199961
96	1000468 858 5106 328600 2 60 59 4 4 236 944
117	1001326 19629 237 328179 1.11 59.91 589 -1.489729022616 1.491443126562 -15.427982511909 951.1294848421
116	1020955 19730 237 328179 1.11 59.91 589 -1.4478111582385 1.4231171708971 -11.602942951314 646.05041992346
115	1040685 13259 237 328179 1.11 59.91 589 36.55 36.55 21527.95 786846.5725
114	1053944 19078 237 328179 1.11 59.91 589 84.773198318481 2049.142630363 629223.09754971 861868543.40748
113	1073022 19089 237 328179 1.11 59.91 589 32.070018271926 35.263935158811 19676.627484069 657758.14751418
111	1092111 20698 237 328179 1.11 59.91 589 -0.038427830739714 0.039397573843303 0.29754988973065 0.45889412678053
110	1112809 19069 237 328179 1.11 59.91 589 19.973772891602 20.032942353315 11778.966035419 235558.77157013
112	1131878 10903 237 328179 1.11 59.91 589 5 5 2945 14725
124	1142781 24240 1172 328558 1.265750082823 59.965748874533 588 0.099987240401 0.100000243922 58.79999903326 5.8799998084762
123	1167021 24239 1056 328442 1.254913602491 59.954925394215 588 0.099909240166 0.100091242743 58.800025033274 5.8800060404056
122	1191260 16702 1172 328558 1.265750082823 59.965748874533 588 5 5 2940 14700
121	1207962 16706 1056 328442 1.254913602491 59.954925394215 588 5 5 2940 14700
120	1224668 917 5107 328601 2 60 59 0 0 0 0
119	1225585 1272 5107 328601 2 60 59 0.022968 0.02625 1.545468 0.040493154024
118	1226857 917 5107 328601 2 60 59 5 5 295 1475
139	1227774 19616 238 328180 1.11 59.91 589 -1.4807666974895 1.4811502087899 -15.377408670935 931.12671999813
138	1247390 19721 238 328180 1.11 59.91 589 -1.4505591632904 1.4267041830045 -11.671986297834 652.68965696695
137	1267111 13259 238 328180 1.11 59.91 589 36.55 36.55 21527.95 786846.5725
136	1280370 19083 238 328180 1.11 59.91 589 60.773198318481 2025.1453810062 615088.01837984 832008581.57744
135	1299453 19077 238 328180 1.11 59.91 589 32.063329633573 35.269195259781 19676.652415917 657763.56559109
133	1318530 20807 238 328180 1.11 59.91 589 -0.019950013647431 0.022264294059894 0.091097582280675 0.098898516008464
132	1339337 19060 238 328180 1.11 59.91 589 19.990654700626 20.011817565079 11779.079668502 235563.20360196
134	1358397 10903 238 328180 1.11 59.91 589 6 6 3534 21204
146	1369300 24258 1312 328701 1.305160322989 60.00515911466 588 0.099987240083 0.100000243927 58.799999033221 5.8799998084685
145	1393558 24250 1062 328448 1.254913682546 59.954925474262 588 0.099909240166 0.100091242741 58.800025033266 5.880006040404
144	1417808 16708 1312 328701 1.305160322989 60.00515911466 588 6 6 3528 21168
143	1434516 16712 1062 328448 1.254913682546 59.954925474262 588 6 6 3528 21168
142	1451228 917 5108 328602 2 60 59 0 0 0 0
141	1452145 1272 5108 328602 2 60 59 0.022969 0.02625 1.545469 0.040493199961
140	1453417 917 5108 328602 2 60 59 6 6 354 2124
161	1454334 19640 239 328181 1.11 59.91 589 -1.4935373308006 1.4938221933888 -15.506107402261 962.2452765675
160	1473974 19730 239 328181 1.11 59.91 589 -1.4563373094752 1.4305268480939 -11.595376516898 656.07867152103
159	1493704 13259 239 328181 1.11 59.91 589 36.55 36.55 21527.95 786846.5725
158	1506963 19085 239 328181 1.11 59.91 589 36.773196411133 2001.1631009941 600950.56865228 802821632.03775
157	1526048 19086 239 328181 1.11 59.91 589 32.060752005606 35.273800792516 19676.832765049 657777.848249
155	1545134 21207 239 328181 1.11 59.91 589 -0.0092142803466899 0.010778975234189 -0.063629268942705 0.023502728173484
154	1566341 19085 239 328181 1.11 59.91 589 19.979947580343 20.027111204754 11781.453334547 235658.24131504
156	1585426 10903 239 328181 1.11 59.91 589 7 7 4123 28861
168	1596329 24233 975 328355 1.254434801937 59.954433593989 588 0.099987240045 0.100000243931 58.799999033602 5.8799998085447
167	1620562 24238 1068 328454 1.254913762602 59.954925554257 588 0.099909240172 0.100091242748 58.800025033205 5.8800060403918
166	1644800 16702 975 328355 1.254434801937 59.954433593989 588 7 7 4116 28812
165	1661502 16701 1068 328454 1.254913762602 59.954925554257 588 7 7 4116 28812
164	1678203 917 5109 328603 2 60 59 0 0 0 0
163	1679120 1272 5109 328603 2 60 59 0.022969 0.02625 1.545469 0.040493199961
162	1680392 917 5109 328603 2 60 59 7 7 413 2891
