file 1683425 1501513471                                         
version 2
run SinusoidalNoAttack-82-20170731-17:03:53-65584
attr CACCSpacing 5
attr attackAcc -30
attr attackPos 7
attr attackSpeed 150
attr attackStart 30
attr attacker 0
attr beaconInterval 0.1
attr configname SinusoidalNoAttack
attr controller 2
attr datetime 20170731-17:03:53
attr experiment SinusoidalNoAttack
attr fakeAcc "(0 == 4)"
attr fakePos "(0 == 2)"
attr fakeSpeed "(0 == 3)"
attr inifile omnetpp_82.ini
attr iterationvars "$controller=2, $sController=\"PLOEG\", $CACCSpacing=5, $leaderSpeed=80, $attacker=0, $attackStart=30, $attackSpeed=150, $attackPos=7, $attackAcc=-30, $0=2, $1=0.5, $nCars=8, $platoonSize=8, $nLanes=1, $beaconInterval=0.1, $priority=2, $packetSize=200, $ploegH=0.5, $leaderHeadway=1.2, $fakeSpeed=(0 == 3), $fakeAcc=(0 == 4), $fakePos=(0 == 2)"
attr iterationvarsf controller=2,sController=PLOEG,CACCSpacing=5,leaderSpeed=80,attacker=0,attackStart=30,attackSpeed=150,attackPos=7,attackAcc=-30,2,0.5,nCars=8,platoonSize=8,nLanes=1,beaconInterval=0.1,priority=2,packetSize=200,ploegH=0.5,leaderHeadway=1.2,fakeSpeed=(0_==_3),fakeAcc=(0_==_4),fakePos=(0_==_2)-
attr leaderHeadway 1.2
attr leaderSpeed 80
attr measurement "$controller=2, $sController=\"PLOEG\", $CACCSpacing=5, $leaderSpeed=80, $attacker=0, $attackStart=30, $attackSpeed=150, $attackPos=7, $attackAcc=-30, $0=2, $1=0.5, $nCars=8, $platoonSize=8, $nLanes=1, $beaconInterval=0.1, $priority=2, $packetSize=200, $ploegH=0.5, $leaderHeadway=1.2, $fakeSpeed=(0 == 3), $fakeAcc=(0 == 4), $fakePos=(0 == 2)"
attr nCars 8
attr nLanes 1
attr network scenario
attr packetSize 200
attr platoonSize 8
attr ploegH 0.5
attr priority 2
attr processid 65584
attr repetition 2
attr replication #2
attr resultdir results
attr runnumber 82
attr sController "\"PLOEG\""
attr seedset 2
param **.coreDebug false
param **.debug false
param **.headway 0.1s
param **.numberOfCars 8
param **.numberOfCarsPerPlatoon 8
param **.numberOfLanes 1
param **.numericController 2
param **.traffic.nCars 8
param **.traffic.nLanes 1
param **.traffic.platoonInsertDistance 2m
param **.traffic.platoonInsertHeadway 0.5s
param **.traffic.platoonInsertSpeed 80kmph
param **.traffic.platoonInsertTime "1 s"
param **.traffic.platoonLeaderHeadway 1.2s
param **.traffic.platoonSize 8
param **.traffic.platooningVType "\"vtypeauto\""
param **.traffic_type "\"PlatoonsTrafficManager\""
param *.**.nic.mac1609_4.bitrate 6Mbps
param *.**.nic.mac1609_4.txPower 100mW
param *.**.nic.mac1609_4.useServiceChannel false
param *.**.nic.phy80211p.analogueModels "xmldoc(\"config.xml\")"
param *.**.nic.phy80211p.decider "xmldoc(\"config.xml\")"
param *.**.nic.phy80211p.maxTXPower 100mW
param *.**.nic.phy80211p.sensitivity -94dBm
param *.**.nic.phy80211p.thermalNoise -95dBm
param *.**.nic.phy80211p.usePropagationDelay true
param *.**.nic.phy80211p.useThermalNoise true
param *.annotations.draw false
param *.connectionManager.alpha 2.0
param *.connectionManager.carrierFrequency "5.890e9 Hz"
param *.connectionManager.pMax 100mW
param *.connectionManager.sat -94dBm
param *.connectionManager.sendDirect true
param *.manager.autoShutdown true
param *.manager.commandLine "\"sumo --remote-port $port --seed $seed --configuration-file $configFile\""
param *.manager.configFile "\"./sumocfg/freeway.sumo.cfg\""
param *.manager.host "\"localhost\""
param *.manager.margin 25
param *.manager.moduleDisplayString "\"\""
param *.manager.moduleName "\"node\""
param *.manager.moduleType "\"Car\""
param *.manager.updateInterval 0.01s
param *.node[*].appl.attackStart 30s
param *.node[*].appl.attackerType 0
param *.node[*].appl.simulationDuration "60 s"
param *.node[*].appl_type "\"SimplePlatooningApp\""
param *.node[*].helper.nCars 8
param *.node[*].helper.nLanes 1
param *.node[*].helper.platoonSize 8
param *.node[*].helper_type "\"PositionHelper\""
param *.node[*].mobility.x 0
param *.node[*].mobility.y 0
param *.node[*].mobility.z 1.895
param *.node[*].prot.attackStart 30s
param *.node[*].prot.attackerType 0
param *.node[*].prot.attackingNode 3
param *.node[*].prot.beaconingInterval 0.1s
param *.node[*].prot.fakeAcc "(0 == 4)"
param *.node[*].prot.fakePos "(0 == 2)"
param *.node[*].prot.fakeSpeed "(0 == 3)"
param *.node[*].prot.maliciousAcc "-30 mpss"
param *.node[*].prot.maliciousSpeed 150kmph
param *.node[*].prot.packetSize 200
param *.node[*].prot.priority 2
param *.node[*].prot.shiftX "7 m"
param *.node[*].prot.useControllerAcceleration true
param *.node[*].protocol_type "\"SimplePlatooningBeaconing\""
param *.node[*].scenario.accHeadway 0.1s
param *.node[*].scenario.caccC1 0.5
param *.node[*].scenario.caccOmegaN "0.2 Hz"
param *.node[*].scenario.caccSpacing 5m
param *.node[*].scenario.caccXi 1
param *.node[*].scenario.controller "\"PLOEG\""
param *.node[*].scenario.engineTau "0.5 s"
param *.node[*].scenario.leaderHeadway 1.2s
param *.node[*].scenario.leaderOscillationFrequency "0.2 Hz"
param *.node[*].scenario.leaderSpeed 80kmph
param *.node[*].scenario.oscillationAmplitude "10 kmph"
param *.node[*].scenario.ploegH 0.5s
param *.node[*].scenario.ploegKd 0.7
param *.node[*].scenario.ploegKp 0.2
param *.node[*].scenario.startOscillating "5 s"
param *.node[*].scenario.useRealisticEngine false
param *.node[*].scenario_type "\"SinusoidalScenario\""
param *.node[*].unicast.packetLossRate 0
param *.obstacles.debug false
param *.playgroundSizeX 65000m
param *.playgroundSizeY 25000m
param *.playgroundSizeZ 50m
param *.world.use2D false
param *.world.useTorus false

vector 0  scenario.node[0].appl  distance  ETV
vector 1  scenario.node[0].appl  relativeSpeed  ETV
vector 2  scenario.node[0].appl  nodeId  ETV
vector 6  scenario.node[0].appl  acceleration  ETV
vector 7  scenario.node[0].appl  controllerAcceleration  ETV
vector 3  scenario.node[0].appl  speed  ETV
vector 4  scenario.node[0].appl  posx  ETV
vector 5  scenario.node[0].appl  posy  ETV
vector 22  scenario.node[1].appl  distance  ETV
vector 23  scenario.node[1].appl  relativeSpeed  ETV
vector 24  scenario.node[1].appl  nodeId  ETV
vector 28  scenario.node[1].appl  acceleration  ETV
vector 29  scenario.node[1].appl  controllerAcceleration  ETV
vector 25  scenario.node[1].appl  speed  ETV
vector 26  scenario.node[1].appl  posx  ETV
vector 27  scenario.node[1].appl  posy  ETV
vector 44  scenario.node[2].appl  distance  ETV
vector 45  scenario.node[2].appl  relativeSpeed  ETV
vector 46  scenario.node[2].appl  nodeId  ETV
vector 50  scenario.node[2].appl  acceleration  ETV
vector 51  scenario.node[2].appl  controllerAcceleration  ETV
vector 47  scenario.node[2].appl  speed  ETV
vector 48  scenario.node[2].appl  posx  ETV
vector 49  scenario.node[2].appl  posy  ETV
vector 66  scenario.node[3].appl  distance  ETV
vector 67  scenario.node[3].appl  relativeSpeed  ETV
vector 68  scenario.node[3].appl  nodeId  ETV
vector 72  scenario.node[3].appl  acceleration  ETV
vector 73  scenario.node[3].appl  controllerAcceleration  ETV
vector 69  scenario.node[3].appl  speed  ETV
vector 70  scenario.node[3].appl  posx  ETV
vector 71  scenario.node[3].appl  posy  ETV
vector 88  scenario.node[4].appl  distance  ETV
vector 89  scenario.node[4].appl  relativeSpeed  ETV
vector 90  scenario.node[4].appl  nodeId  ETV
vector 94  scenario.node[4].appl  acceleration  ETV
vector 95  scenario.node[4].appl  controllerAcceleration  ETV
vector 91  scenario.node[4].appl  speed  ETV
vector 92  scenario.node[4].appl  posx  ETV
vector 93  scenario.node[4].appl  posy  ETV
vector 110  scenario.node[5].appl  distance  ETV
vector 111  scenario.node[5].appl  relativeSpeed  ETV
vector 112  scenario.node[5].appl  nodeId  ETV
vector 116  scenario.node[5].appl  acceleration  ETV
vector 117  scenario.node[5].appl  controllerAcceleration  ETV
vector 113  scenario.node[5].appl  speed  ETV
vector 114  scenario.node[5].appl  posx  ETV
vector 115  scenario.node[5].appl  posy  ETV
vector 132  scenario.node[6].appl  distance  ETV
vector 133  scenario.node[6].appl  relativeSpeed  ETV
vector 134  scenario.node[6].appl  nodeId  ETV
vector 138  scenario.node[6].appl  acceleration  ETV
vector 139  scenario.node[6].appl  controllerAcceleration  ETV
vector 135  scenario.node[6].appl  speed  ETV
vector 136  scenario.node[6].appl  posx  ETV
vector 137  scenario.node[6].appl  posy  ETV
vector 154  scenario.node[7].appl  distance  ETV
vector 155  scenario.node[7].appl  relativeSpeed  ETV
vector 156  scenario.node[7].appl  nodeId  ETV
vector 160  scenario.node[7].appl  acceleration  ETV
vector 161  scenario.node[7].appl  controllerAcceleration  ETV
vector 157  scenario.node[7].appl  speed  ETV
vector 158  scenario.node[7].appl  posx  ETV
vector 159  scenario.node[7].appl  posy  ETV
vector 168  scenario.node[7].prot  frontDelay  ETV
vector 166  scenario.node[7].prot  frontDelayId  ETV
vector 146  scenario.node[6].prot  frontDelay  ETV
vector 144  scenario.node[6].prot  frontDelayId  ETV
vector 35  scenario.node[1].prot  leaderDelay  ETV
vector 33  scenario.node[1].prot  leaderDelayId  ETV
vector 36  scenario.node[1].prot  frontDelay  ETV
vector 34  scenario.node[1].prot  frontDelayId  ETV
vector 57  scenario.node[2].prot  leaderDelay  ETV
vector 55  scenario.node[2].prot  leaderDelayId  ETV
vector 79  scenario.node[3].prot  leaderDelay  ETV
vector 77  scenario.node[3].prot  leaderDelayId  ETV
vector 101  scenario.node[4].prot  leaderDelay  ETV
vector 99  scenario.node[4].prot  leaderDelayId  ETV
vector 123  scenario.node[5].prot  leaderDelay  ETV
vector 121  scenario.node[5].prot  leaderDelayId  ETV
vector 145  scenario.node[6].prot  leaderDelay  ETV
vector 143  scenario.node[6].prot  leaderDelayId  ETV
vector 167  scenario.node[7].prot  leaderDelay  ETV
vector 165  scenario.node[7].prot  leaderDelayId  ETV
vector 102  scenario.node[4].prot  frontDelay  ETV
vector 100  scenario.node[4].prot  frontDelayId  ETV
vector 80  scenario.node[3].prot  frontDelay  ETV
vector 78  scenario.node[3].prot  frontDelayId  ETV
vector 124  scenario.node[5].prot  frontDelay  ETV
vector 122  scenario.node[5].prot  frontDelayId  ETV
vector 58  scenario.node[2].prot  frontDelay  ETV
vector 56  scenario.node[2].prot  frontDelayId  ETV
vector 8  scenario.node[0].prot  nodeId  ETV
vector 9  scenario.node[0].prot  busyTime  ETV
vector 10  scenario.node[0].prot  collisions  ETV
vector 30  scenario.node[1].prot  nodeId  ETV
vector 31  scenario.node[1].prot  busyTime  ETV
vector 32  scenario.node[1].prot  collisions  ETV
vector 52  scenario.node[2].prot  nodeId  ETV
vector 53  scenario.node[2].prot  busyTime  ETV
vector 54  scenario.node[2].prot  collisions  ETV
vector 74  scenario.node[3].prot  nodeId  ETV
vector 75  scenario.node[3].prot  busyTime  ETV
vector 76  scenario.node[3].prot  collisions  ETV
vector 96  scenario.node[4].prot  nodeId  ETV
vector 97  scenario.node[4].prot  busyTime  ETV
vector 98  scenario.node[4].prot  collisions  ETV
vector 118  scenario.node[5].prot  nodeId  ETV
vector 119  scenario.node[5].prot  busyTime  ETV
vector 120  scenario.node[5].prot  collisions  ETV
vector 140  scenario.node[6].prot  nodeId  ETV
vector 141  scenario.node[6].prot  busyTime  ETV
vector 142  scenario.node[6].prot  collisions  ETV
vector 162  scenario.node[7].prot  nodeId  ETV
vector 163  scenario.node[7].prot  busyTime  ETV
vector 164  scenario.node[7].prot  collisions  ETV
7	11221 13855 232 328174 1.11 59.91 589 -1.5 1.5 -14.445957496355 993.24092342393
6	25076 18568 232 328174 1.11 59.91 589 -1.4722746795719 1.4513434175793 -12.507252200722 675.29835178084
5	43644 12081 232 328174 1.11 59.91 589 36.55 36.55 21527.95 786846.5725
4	55725 17896 232 328174 1.11 59.91 589 156.89330368069 1467.8761010451 479314.35834279 474464753.18216
3	73621 17918 232 328174 1.11 59.91 589 20.932410304178 24.18693697487 13131.616571188 293209.28872176
1	91539 9725 232 328174 1.11 59.91 589 0 0 0 0
0	101264 10314 232 328174 1.11 59.91 589 -1 -1 -589 589
2	111578 9725 232 328174 1.11 59.91 589 0 0 0 0
10	121303 858 5168 328662 2 60 59 0 0 0 0
9	122161 1154 5168 328662 2 60 59 0.023297 0.02625 1.545797 0.040508375209
8	123315 799 5168 328662 2 60 59 0 0 0 0
29	124114 19123 233 328175 1.11 59.91 589 -1.536875078404 1.5234425498774 -12.726404153137 745.33460839055
28	143237 19217 233 328175 1.11 59.91 589 -1.4452179924401 1.3764990684091 -6.6049257642447 524.27046707282
27	162454 12670 233 328175 1.11 59.91 589 36.55 36.55 21527.95 786846.5725
26	175124 18495 233 328175 1.11 59.91 589 139.78218917847 1451.1750825929 469212.08696878 458211998.78475
25	193619 18492 233 328175 1.11 59.91 589 21.111725931506 24.024470729766 13135.929259256 293309.91229468
23	212111 19558 233 328175 1.11 59.91 589 -0.73571938372853 0.72027334762755 -4.187615545989 148.41819801621
22	231669 18491 233 328175 1.11 59.91 589 12.505962177708 14.047273404612 7746.3576277771 101979.94284594
24	250160 10314 233 328175 1.11 59.91 589 1 1 589 589
36	260474 23698 1034 328420 1.262217769376 59.962211456325 588 0.099999237029 0.100012294819 58.799992942635 5.8799985937909
35	284172 23698 1034 328420 1.262217769376 59.962211456325 588 0.099999237029 0.100012294819 58.799992942635 5.8799985937909
34	307870 16109 1034 328420 1.262217769376 59.962211456325 588 1 1 588 588
33	323979 16109 1034 328420 1.262217769376 59.962211456325 588 1 1 588 588
32	340088 858 5169 328663 2 60 59 0 0 0 0
31	340946 1213 5169 328663 2 60 59 0.023296 0.02625 1.545796 0.040508328616
30	342159 858 5169 328663 2 60 59 1 1 59 59
51	343017 19184 234 328176 1.11 59.91 589 -1.502034402849 1.4360383085056 -6.1842019623046 569.79582829684
50	362201 19291 234 328176 1.11 59.91 589 -1.3544330315387 1.2376519281009 -0.037520645654965 400.1924304363
49	381492 12670 234 328176 1.11 59.91 589 36.55 36.55 21527.95 786846.5725
48	394162 18499 234 328176 1.11 59.91 589 122.67107467651 1434.1076124175 459109.58026763 442303378.7592
47	412661 18491 234 328176 1.11 59.91 589 21.256534440083 23.896290229505 13136.595500439 293266.22602311
45	431152 19535 234 328176 1.11 59.91 589 -0.68794301265143 0.64296890933644 -0.60019192592934 109.41734158463
44	450687 18502 234 328176 1.11 59.91 589 12.595023169029 13.964246421484 7746.5200259662 101959.86002209
46	469189 10314 234 328176 1.11 59.91 589 2 2 1178 2356
58	479503 23702 1312 328707 1.302597283066 60.002603974074 588 0.099999237314 0.100012299732 58.800005946694 5.8800011947526
57	503205 23698 1040 328426 1.262217826452 59.962211513147 588 0.09999923716 0.100012294604 58.799992942381 5.8799985937401
56	526903 16102 1312 328707 1.302597283066 60.002603974074 588 2 2 1176 2352
55	543005 16131 1040 328426 1.262217826452 59.962211513147 588 2 2 1176 2352
54	559136 858 5170 328664 2 60 59 0 0 0 0
53	559994 1213 5170 328664 2 60 59 0.023297 0.02625 1.545797 0.040508375209
52	561207 858 5170 328664 2 60 59 2 2 118 236
73	562065 19279 235 328177 1.11 59.91 589 -1.4075544713199 1.2908483464122 0.64186992233246 434.88655489836
72	581344 19405 235 328177 1.11 59.91 589 -1.2452157498387 1.0915562624142 4.9285989254873 307.81624037692
71	600749 12670 235 328177 1.11 59.91 589 36.55 36.55 21527.95 786846.5725
70	613419 18500 235 328177 1.11 59.91 589 105.55996780396 1416.7657280248 449007.90721068 426743162.10478
69	631919 18500 235 328177 1.11 59.91 589 21.372210532738 23.794704337477 13134.45866685 293115.01357007
67	650419 19526 235 328177 1.11 59.91 589 -0.63471138451806 0.57024563833508 2.1372087955328 83.993754225449
66	669945 18500 235 328177 1.11 59.91 589 12.657600574354 13.909809759524 7745.6303202821 101920.63608197
68	688445 10314 235 328177 1.11 59.91 589 3 3 1767 5301
80	698759 23714 1176 328562 1.287873997683 59.987880686387 588 0.099999237198 0.100012300381 58.80000594439 5.8800011942917
79	722473 23691 1046 328432 1.262217883529 59.96221157091 588 0.09999923717 0.100012294462 58.799992943067 5.8799985938773
78	746164 16125 1176 328562 1.287873997683 59.987880686387 588 3 3 1764 5292
77	762289 16121 1046 328432 1.262217883529 59.96221157091 588 3 3 1764 5292
76	778410 858 5171 328665 2 60 59 0 0 0 0
75	779268 1213 5171 328665 2 60 59 0.023297 0.02625 1.545797 0.040508375209
74	780481 858 5171 328665 2 60 59 3 3 177 531
95	781339 19356 236 328178 1.11 59.91 589 -1.297579427017 1.1408180042296 5.6157931375994 335.22566122365
94	800695 19506 236 328178 1.11 59.91 589 -1.1384638190172 0.95767783953207 7.1113769510415 240.02672254425
93	820201 12670 236 328178 1.11 59.91 589 36.55 36.55 21527.95 786846.5725
92	832871 18501 236 328178 1.11 59.91 589 88.448857116699 1399.2883654343 438907.9908661 411533884.90495
91	851372 18497 236 328178 1.11 59.91 589 21.470932754437 23.709888231845 13130.868333238 292910.48537693
89	869869 19563 236 328178 1.11 59.91 589 -0.5814881766679 0.50053822818746 3.541047623159 65.332869431063
88	889432 18488 236 328178 1.11 59.91 589 12.710571586265 13.864765123762 7743.8445379029 101861.1671433
90	907920 10314 236 328178 1.11 59.91 589 4 4 2356 9424
102	918234 24274 1108 328494 1.276579940606 59.976586629164 588 0.09999923708 0.100012300396 58.800005944244 5.8800011942626
101	942508 24284 1052 328438 1.262217940605 59.962211629172 588 0.099999237079 0.100012294413 58.799992944253 5.8799985941145
100	966792 16696 1108 328494 1.276579940606 59.976586629164 588 4 4 2352 9408
99	983488 16121 1052 328438 1.262217940605 59.962211629172 588 4 4 2352 9408
98	999609 858 5172 328666 2 60 59 0 0 0 0
97	1000467 1213 5172 328666 2 60 59 0.023297 0.02625 1.545797 0.040508375209
96	1001680 858 5172 328666 2 60 59 4 4 236 944
117	1002538 20072 237 328179 1.11 59.91 589 -1.1848237527056 1.0009872597284 7.5816242424433 261.4729834977
116	1022610 20100 237 328179 1.11 59.91 589 -1.0372261640043 0.83967810801084 6.3605342532792 188.19169661014
115	1042710 13259 237 328179 1.11 59.91 589 36.55 36.55 21527.95 786846.5725
114	1055969 19071 237 328179 1.11 59.91 589 71.337742614746 1381.8311047589 428809.96740198 396675784.45667
113	1075040 19093 237 328179 1.11 59.91 589 21.558743384538 23.635711287141 13127.376539569 292719.36453373
111	1094133 20192 237 328179 1.11 59.91 589 -0.53004521997028 0.43928937568184 3.4206798991058 51.187318724181
110	1114325 19084 237 328179 1.11 59.91 589 12.757399862204 13.825917309214 7741.9536282536 101801.42053319
112	1133409 10903 237 328179 1.11 59.91 589 5 5 2945 14725
124	1144312 24300 1244 328630 1.297504111836 59.997510802883 588 0.099999236974 0.100012301565 58.800005946733 5.8800011947603
123	1168612 24309 1058 328444 1.262217997682 59.962211687416 588 0.099999236939 0.10001229445 58.79999294542 5.8799985943479
122	1192921 16693 1244 328630 1.297504111836 59.997510802883 588 5 5 2940 14700
121	1209614 16698 1058 328444 1.262217997682 59.962211687416 588 5 5 2940 14700
120	1226312 917 5173 328667 2 60 59 0 0 0 0
119	1227229 1272 5173 328667 2 60 59 0.023297 0.02625 1.545797 0.040508375209
118	1228501 917 5173 328667 2 60 59 5 5 295 1475
139	1229418 20111 238 328180 1.11 59.91 589 -1.0795228671611 0.87482190424005 6.4842952503924 204.00584656182
138	1249529 20134 238 328180 1.11 59.91 589 -0.94671705610594 0.73633351338493 3.5624918468535 146.5920207718
137	1269663 13259 238 328180 1.11 59.91 589 36.55 36.55 21527.95 786846.5725
136	1282922 19078 238 328180 1.11 59.91 589 54.226633834839 1364.510948633 418713.27007115 382167149.18495
135	1302000 19065 238 328180 1.11 59.91 589 21.637516929338 23.569973695362 13125.185624445 292594.57759435
133	1321065 20210 238 328180 1.11 59.91 589 -0.4834028012903 0.38518644355491 2.1273097816693 39.899195462371
132	1341275 19089 238 328180 1.11 59.91 589 12.799418739867 13.791729794935 7740.6535125247 101759.50415345
134	1360364 10903 238 328180 1.11 59.91 589 6 6 3534 21204
146	1371267 24308 970 328350 1.247595483993 59.947602171689 588 0.099999236561 0.100012302003 58.800005943382 5.88000119409
145	1395575 24241 1064 328450 1.262218054758 59.962211745237 588 0.099999236813 0.100012294541 58.799992946165 5.8799985944969
144	1419816 16711 970 328350 1.247595483993 59.947602171689 588 6 6 3528 21168
143	1436527 16689 1064 328450 1.262218054758 59.962211745237 588 6 6 3528 21168
142	1453216 917 5174 328668 2 60 59 0 0 0 0
141	1454133 1272 5174 328668 2 60 59 0.023297 0.02625 1.545797 0.040508375209
140	1455405 917 5174 328668 2 60 59 6 6 354 2124
161	1456322 20115 239 328181 1.11 59.91 589 -0.98715416245781 0.76866495688233 3.384459635796 159.3189249943
160	1476437 20149 239 328181 1.11 59.91 589 -0.86778463576991 0.64744270939983 0.14742362743867 113.50565119241
159	1496586 13259 239 328181 1.11 59.91 589 36.55 36.55 21527.95 786846.5725
158	1509845 19082 239 328181 1.11 59.91 589 37.115522193909 1347.3695810884 408616.99271756 368005412.08736
157	1528927 19086 239 328181 1.11 59.91 589 21.70695729044 23.511143920504 13124.763109527 292555.41910585
155	1548013 20230 239 328181 1.11 59.91 589 -0.44267539407183 0.33861715482348 0.38688999936222 30.895475432818
154	1568243 19093 239 328181 1.11 59.91 589 12.836432412387 13.761027974427 7740.2689032941 101743.62178105
156	1587336 10903 239 328181 1.11 59.91 589 7 7 4123 28861
168	1598239 24320 832 328212 1.212137312763 59.912130998915 588 0.099999236877 0.100012294607 58.799992941838 5.8799985936317
167	1622559 24322 1070 328456 1.262218111835 59.962211802471 588 0.099999236741 0.100012294647 58.799992946322 5.8799985945283
166	1646881 16730 832 328212 1.212137312763 59.912130998915 588 7 7 4116 28812
165	1663611 16708 1070 328456 1.262218111835 59.962211802471 588 7 7 4116 28812
164	1680319 917 5175 328669 2 60 59 0 0 0 0
163	1681236 1272 5175 328669 2 60 59 0.023297 0.02625 1.545797 0.040508375209
162	1682508 917 5175 328669 2 60 59 7 7 413 2891
