file 1681681 1501513198                                         
version 2
run SinusoidalNoAttack-67-20170731-16:59:25-42724
attr CACCSpacing 20
attr attackAcc -30
attr attackPos 7
attr attackSpeed 150
attr attackStart 30
attr attacker 0
attr beaconInterval 0.1
attr configname SinusoidalNoAttack
attr controller 1
attr datetime 20170731-16:59:25
attr experiment SinusoidalNoAttack
attr fakeAcc "(0 == 4)"
attr fakePos "(0 == 2)"
attr fakeSpeed "(0 == 3)"
attr inifile omnetpp_67.ini
attr iterationvars "$controller=1, $sController=\"CACC\", $CACCSpacing=20, $leaderSpeed=120, $attacker=0, $attackStart=30, $attackSpeed=150, $attackPos=7, $attackAcc=-30, $0=20, $1=0, $nCars=8, $platoonSize=8, $nLanes=1, $beaconInterval=0.1, $priority=2, $packetSize=200, $ploegH=0.5, $leaderHeadway=1.2, $fakeSpeed=(0 == 3), $fakeAcc=(0 == 4), $fakePos=(0 == 2)"
attr iterationvarsf controller=1,sController=CACC,CACCSpacing=20,leaderSpeed=120,attacker=0,attackStart=30,attackSpeed=150,attackPos=7,attackAcc=-30,20,0,nCars=8,platoonSize=8,nLanes=1,beaconInterval=0.1,priority=2,packetSize=200,ploegH=0.5,leaderHeadway=1.2,fakeSpeed=(0_==_3),fakeAcc=(0_==_4),fakePos=(0_==_2)-
attr leaderHeadway 1.2
attr leaderSpeed 120
attr measurement "$controller=1, $sController=\"CACC\", $CACCSpacing=20, $leaderSpeed=120, $attacker=0, $attackStart=30, $attackSpeed=150, $attackPos=7, $attackAcc=-30, $0=20, $1=0, $nCars=8, $platoonSize=8, $nLanes=1, $beaconInterval=0.1, $priority=2, $packetSize=200, $ploegH=0.5, $leaderHeadway=1.2, $fakeSpeed=(0 == 3), $fakeAcc=(0 == 4), $fakePos=(0 == 2)"
attr nCars 8
attr nLanes 1
attr network scenario
attr packetSize 200
attr platoonSize 8
attr ploegH 0.5
attr priority 2
attr processid 42724
attr repetition 2
attr replication #2
attr resultdir results
attr runnumber 67
attr sController "\"CACC\""
attr seedset 2
param **.coreDebug false
param **.debug false
param **.headway 0.1s
param **.numberOfCars 8
param **.numberOfCarsPerPlatoon 8
param **.numberOfLanes 1
param **.numericController 1
param **.traffic.nCars 8
param **.traffic.nLanes 1
param **.traffic.platoonInsertDistance 20m
param **.traffic.platoonInsertHeadway 0s
param **.traffic.platoonInsertSpeed 120kmph
param **.traffic.platoonInsertTime "1 s"
param **.traffic.platoonLeaderHeadway 1.2s
param **.traffic.platoonSize 8
param **.traffic.platooningVType "\"vtypeauto\""
param **.traffic_type "\"PlatoonsTrafficManager\""
param *.**.nic.mac1609_4.bitrate 6Mbps
param *.**.nic.mac1609_4.txPower 100mW
param *.**.nic.mac1609_4.useServiceChannel false
param *.**.nic.phy80211p.analogueModels "xmldoc(\"config.xml\")"
param *.**.nic.phy80211p.decider "xmldoc(\"config.xml\")"
param *.**.nic.phy80211p.maxTXPower 100mW
param *.**.nic.phy80211p.sensitivity -94dBm
param *.**.nic.phy80211p.thermalNoise -95dBm
param *.**.nic.phy80211p.usePropagationDelay true
param *.**.nic.phy80211p.useThermalNoise true
param *.annotations.draw false
param *.connectionManager.alpha 2.0
param *.connectionManager.carrierFrequency "5.890e9 Hz"
param *.connectionManager.pMax 100mW
param *.connectionManager.sat -94dBm
param *.connectionManager.sendDirect true
param *.manager.autoShutdown true
param *.manager.commandLine "\"sumo --remote-port $port --seed $seed --configuration-file $configFile\""
param *.manager.configFile "\"./sumocfg/freeway.sumo.cfg\""
param *.manager.host "\"localhost\""
param *.manager.margin 25
param *.manager.moduleDisplayString "\"\""
param *.manager.moduleName "\"node\""
param *.manager.moduleType "\"Car\""
param *.manager.updateInterval 0.01s
param *.node[*].appl.attackStart 30s
param *.node[*].appl.attackerType 0
param *.node[*].appl.simulationDuration "60 s"
param *.node[*].appl_type "\"SimplePlatooningApp\""
param *.node[*].helper.nCars 8
param *.node[*].helper.nLanes 1
param *.node[*].helper.platoonSize 8
param *.node[*].helper_type "\"PositionHelper\""
param *.node[*].mobility.x 0
param *.node[*].mobility.y 0
param *.node[*].mobility.z 1.895
param *.node[*].prot.attackStart 30s
param *.node[*].prot.attackerType 0
param *.node[*].prot.attackingNode 3
param *.node[*].prot.beaconingInterval 0.1s
param *.node[*].prot.fakeAcc "(0 == 4)"
param *.node[*].prot.fakePos "(0 == 2)"
param *.node[*].prot.fakeSpeed "(0 == 3)"
param *.node[*].prot.maliciousAcc "-30 mpss"
param *.node[*].prot.maliciousSpeed 150kmph
param *.node[*].prot.packetSize 200
param *.node[*].prot.priority 2
param *.node[*].prot.shiftX "7 m"
param *.node[*].prot.useControllerAcceleration true
param *.node[*].protocol_type "\"SimplePlatooningBeaconing\""
param *.node[*].scenario.accHeadway 0.1s
param *.node[*].scenario.caccC1 0.5
param *.node[*].scenario.caccOmegaN "0.2 Hz"
param *.node[*].scenario.caccSpacing 20m
param *.node[*].scenario.caccXi 1
param *.node[*].scenario.controller "\"CACC\""
param *.node[*].scenario.engineTau "0.5 s"
param *.node[*].scenario.leaderHeadway 1.2s
param *.node[*].scenario.leaderOscillationFrequency "0.2 Hz"
param *.node[*].scenario.leaderSpeed 120kmph
param *.node[*].scenario.oscillationAmplitude "10 kmph"
param *.node[*].scenario.ploegH 0.5s
param *.node[*].scenario.ploegKd 0.7
param *.node[*].scenario.ploegKp 0.2
param *.node[*].scenario.startOscillating "5 s"
param *.node[*].scenario.useRealisticEngine false
param *.node[*].scenario_type "\"SinusoidalScenario\""
param *.node[*].unicast.packetLossRate 0
param *.obstacles.debug false
param *.playgroundSizeX 65000m
param *.playgroundSizeY 25000m
param *.playgroundSizeZ 50m
param *.world.use2D false
param *.world.useTorus false

vector 0  scenario.node[0].appl  distance  ETV
vector 1  scenario.node[0].appl  relativeSpeed  ETV
vector 2  scenario.node[0].appl  nodeId  ETV
vector 6  scenario.node[0].appl  acceleration  ETV
vector 7  scenario.node[0].appl  controllerAcceleration  ETV
vector 3  scenario.node[0].appl  speed  ETV
vector 4  scenario.node[0].appl  posx  ETV
vector 5  scenario.node[0].appl  posy  ETV
vector 22  scenario.node[1].appl  distance  ETV
vector 23  scenario.node[1].appl  relativeSpeed  ETV
vector 24  scenario.node[1].appl  nodeId  ETV
vector 28  scenario.node[1].appl  acceleration  ETV
vector 29  scenario.node[1].appl  controllerAcceleration  ETV
vector 25  scenario.node[1].appl  speed  ETV
vector 26  scenario.node[1].appl  posx  ETV
vector 27  scenario.node[1].appl  posy  ETV
vector 44  scenario.node[2].appl  distance  ETV
vector 45  scenario.node[2].appl  relativeSpeed  ETV
vector 46  scenario.node[2].appl  nodeId  ETV
vector 50  scenario.node[2].appl  acceleration  ETV
vector 51  scenario.node[2].appl  controllerAcceleration  ETV
vector 47  scenario.node[2].appl  speed  ETV
vector 48  scenario.node[2].appl  posx  ETV
vector 49  scenario.node[2].appl  posy  ETV
vector 66  scenario.node[3].appl  distance  ETV
vector 67  scenario.node[3].appl  relativeSpeed  ETV
vector 68  scenario.node[3].appl  nodeId  ETV
vector 72  scenario.node[3].appl  acceleration  ETV
vector 73  scenario.node[3].appl  controllerAcceleration  ETV
vector 69  scenario.node[3].appl  speed  ETV
vector 70  scenario.node[3].appl  posx  ETV
vector 71  scenario.node[3].appl  posy  ETV
vector 88  scenario.node[4].appl  distance  ETV
vector 89  scenario.node[4].appl  relativeSpeed  ETV
vector 90  scenario.node[4].appl  nodeId  ETV
vector 94  scenario.node[4].appl  acceleration  ETV
vector 95  scenario.node[4].appl  controllerAcceleration  ETV
vector 91  scenario.node[4].appl  speed  ETV
vector 92  scenario.node[4].appl  posx  ETV
vector 93  scenario.node[4].appl  posy  ETV
vector 110  scenario.node[5].appl  distance  ETV
vector 111  scenario.node[5].appl  relativeSpeed  ETV
vector 112  scenario.node[5].appl  nodeId  ETV
vector 116  scenario.node[5].appl  acceleration  ETV
vector 117  scenario.node[5].appl  controllerAcceleration  ETV
vector 113  scenario.node[5].appl  speed  ETV
vector 114  scenario.node[5].appl  posx  ETV
vector 115  scenario.node[5].appl  posy  ETV
vector 132  scenario.node[6].appl  distance  ETV
vector 133  scenario.node[6].appl  relativeSpeed  ETV
vector 134  scenario.node[6].appl  nodeId  ETV
vector 138  scenario.node[6].appl  acceleration  ETV
vector 139  scenario.node[6].appl  controllerAcceleration  ETV
vector 135  scenario.node[6].appl  speed  ETV
vector 136  scenario.node[6].appl  posx  ETV
vector 137  scenario.node[6].appl  posy  ETV
vector 154  scenario.node[7].appl  distance  ETV
vector 155  scenario.node[7].appl  relativeSpeed  ETV
vector 156  scenario.node[7].appl  nodeId  ETV
vector 160  scenario.node[7].appl  acceleration  ETV
vector 161  scenario.node[7].appl  controllerAcceleration  ETV
vector 157  scenario.node[7].appl  speed  ETV
vector 158  scenario.node[7].appl  posx  ETV
vector 159  scenario.node[7].appl  posy  ETV
vector 168  scenario.node[7].prot  frontDelay  ETV
vector 166  scenario.node[7].prot  frontDelayId  ETV
vector 146  scenario.node[6].prot  frontDelay  ETV
vector 144  scenario.node[6].prot  frontDelayId  ETV
vector 35  scenario.node[1].prot  leaderDelay  ETV
vector 33  scenario.node[1].prot  leaderDelayId  ETV
vector 36  scenario.node[1].prot  frontDelay  ETV
vector 34  scenario.node[1].prot  frontDelayId  ETV
vector 57  scenario.node[2].prot  leaderDelay  ETV
vector 55  scenario.node[2].prot  leaderDelayId  ETV
vector 79  scenario.node[3].prot  leaderDelay  ETV
vector 77  scenario.node[3].prot  leaderDelayId  ETV
vector 101  scenario.node[4].prot  leaderDelay  ETV
vector 99  scenario.node[4].prot  leaderDelayId  ETV
vector 123  scenario.node[5].prot  leaderDelay  ETV
vector 121  scenario.node[5].prot  leaderDelayId  ETV
vector 145  scenario.node[6].prot  leaderDelay  ETV
vector 143  scenario.node[6].prot  leaderDelayId  ETV
vector 167  scenario.node[7].prot  leaderDelay  ETV
vector 165  scenario.node[7].prot  leaderDelayId  ETV
vector 102  scenario.node[4].prot  frontDelay  ETV
vector 100  scenario.node[4].prot  frontDelayId  ETV
vector 80  scenario.node[3].prot  frontDelay  ETV
vector 78  scenario.node[3].prot  frontDelayId  ETV
vector 124  scenario.node[5].prot  frontDelay  ETV
vector 122  scenario.node[5].prot  frontDelayId  ETV
vector 58  scenario.node[2].prot  frontDelay  ETV
vector 56  scenario.node[2].prot  frontDelayId  ETV
vector 8  scenario.node[0].prot  nodeId  ETV
vector 9  scenario.node[0].prot  busyTime  ETV
vector 10  scenario.node[0].prot  collisions  ETV
vector 30  scenario.node[1].prot  nodeId  ETV
vector 31  scenario.node[1].prot  busyTime  ETV
vector 32  scenario.node[1].prot  collisions  ETV
vector 52  scenario.node[2].prot  nodeId  ETV
vector 53  scenario.node[2].prot  busyTime  ETV
vector 54  scenario.node[2].prot  collisions  ETV
vector 74  scenario.node[3].prot  nodeId  ETV
vector 75  scenario.node[3].prot  busyTime  ETV
vector 76  scenario.node[3].prot  collisions  ETV
vector 96  scenario.node[4].prot  nodeId  ETV
vector 97  scenario.node[4].prot  busyTime  ETV
vector 98  scenario.node[4].prot  collisions  ETV
vector 118  scenario.node[5].prot  nodeId  ETV
vector 119  scenario.node[5].prot  busyTime  ETV
vector 120  scenario.node[5].prot  collisions  ETV
vector 140  scenario.node[6].prot  nodeId  ETV
vector 141  scenario.node[6].prot  busyTime  ETV
vector 142  scenario.node[6].prot  collisions  ETV
vector 162  scenario.node[7].prot  nodeId  ETV
vector 163  scenario.node[7].prot  busyTime  ETV
vector 164  scenario.node[7].prot  collisions  ETV
7	11223 13859 232 328174 1.11 59.91 589 -1.5 1.5 -14.445953361693 993.24092335941
6	25082 18579 232 328174 1.11 59.91 589 -1.4722746795918 1.4513434175775 -12.507247963452 675.29835166926
5	43661 12081 232 328174 1.11 59.91 589 36.55 36.55 21527.95 786846.5725
4	55742 17899 232 328174 1.11 59.91 589 206.22662849466 2170.5427588145 700778.353104 1023450692.4243
3	73641 17913 232 328174 1.11 59.91 589 32.043521415285 35.298048086563 19676.061011579 657739.0394163
1	91554 9725 232 328174 1.11 59.91 589 0 0 0 0
0	101279 10314 232 328174 1.11 59.91 589 -1 -1 -589 589
2	111593 9725 232 328174 1.11 59.91 589 0 0 0 0
10	121318 858 5168 328662 2 60 59 0 0 0 0
9	122176 1154 5168 328662 2 60 59 0.023297 0.02625 1.545797 0.040508375209
8	123330 799 5168 328662 2 60 59 0 0 0 0
29	124129 17079 233 328175 1.11 59.91 589 -1.5201885288689 1.5215379190836 -16.621652876304 995.58727581547
28	141208 19153 233 328175 1.11 59.91 589 -1.4845166945477 1.4492363474488 -12.160463294476 675.58505991894
27	160361 12670 233 328175 1.11 59.91 589 36.55 36.55 21527.95 786846.5725
26	173031 18507 233 328175 1.11 59.91 589 182.22662849426 2146.4882423596 686585.36345435 989991179.86059
25	191538 18498 233 328175 1.11 59.91 589 32.038145409757 35.29378902846 19675.531440502 657703.69462157
23	210036 20079 233 328175 1.11 59.91 589 -0.085666453948527 0.092346604760593 0.65464355618312 2.4329174862959
22	230115 18503 233 328175 1.11 59.91 589 19.942679518865 20.230457318659 11836.979058228 237887.94299697
24	248618 10314 233 328175 1.11 59.91 589 1 1 589 589
36	258932 23690 1034 328420 1.262218481716 59.962221695888 588 0.099999759937 0.100012763302 58.80000297539 5.8800005969023
35	282622 23690 1034 328420 1.262218481716 59.962221695888 588 0.099999759937 0.100012763302 58.80000297539 5.8800005969023
34	306312 16109 1034 328420 1.262218481716 59.962221695888 588 1 1 588 588
33	322421 16109 1034 328420 1.262218481716 59.962221695888 588 1 1 588 588
32	338530 858 5169 328663 2 60 59 0 0 0 0
31	339388 1213 5169 328663 2 60 59 0.023296 0.02625 1.545796 0.040508328616
30	340601 858 5169 328663 2 60 59 1 1 59 59
51	341459 19038 234 328176 1.11 59.91 589 -1.4917898302356 1.4990053074392 -15.174446589547 962.2197268043
50	360497 19125 234 328176 1.11 59.91 589 -1.4755501940463 1.4415876755557 -11.894505569012 670.56364703231
49	379622 12670 234 328176 1.11 59.91 589 36.55 36.55 21527.95 786846.5725
48	392292 18492 234 328176 1.11 59.91 589 158.22662849426 2122.4614603707 672433.21884898 957327544.69222
47	410784 18500 234 328176 1.11 59.91 589 32.041566448971 35.288527802301 19675.270445717 657682.40972117
45	429284 20328 234 328176 1.11 59.91 589 -0.017774648946897 0.016578181128978 0.38259941808591 0.057315599244238
44	449612 18464 234 328176 1.11 59.91 589 19.984493439923 20.070358956073 11796.13938548 236246.30923201
46	468076 10314 234 328176 1.11 59.91 589 2 2 1178 2356
58	478390 23713 1312 328701 1.302598202214 60.002601416287 588 0.099999759924 0.100012763807 58.800002975291 5.8800005968824
57	502103 23708 1040 328426 1.262218561772 59.962221776029 588 0.099999759938 0.100012763298 58.800002975475 5.8800005969193
56	525811 16115 1312 328701 1.302598202214 60.002601416287 588 2 2 1176 2352
55	541926 16121 1040 328426 1.262218561772 59.962221776029 588 2 2 1176 2352
54	558047 858 5170 328664 2 60 59 0 0 0 0
53	558905 1213 5170 328664 2 60 59 0.023297 0.02625 1.545797 0.040508375209
52	560118 858 5170 328664 2 60 59 2 2 118 236
73	560976 18967 235 328177 1.11 59.91 589 -1.5133685678821 1.5080594301207 -15.672873087961 986.36881097595
72	579943 19147 235 328177 1.11 59.91 589 -1.4653396754866 1.4364933071917 -11.753414399296 662.08108392274
71	599090 12670 235 328177 1.11 59.91 589 36.55 36.55 21527.95 786846.5725
70	611760 18503 235 328177 1.11 59.91 589 134.22663612366 2098.484470437 658303.61626075 925407906.78785
69	630263 18492 235 328177 1.11 59.91 589 32.05025309588 35.279582308131 19675.506292721 657693.0484764
67	648755 20572 235 328177 1.11 59.91 589 -0.015548638213247 0.011230183678428 -0.11690194824659 0.020984450806492
66	669327 18494 235 328177 1.11 59.91 589 19.962130351013 20.035282392355 11773.607305163 235344.50186554
68	687821 10314 235 328177 1.11 59.91 589 3 3 1767 5301
80	698135 23714 1176 328556 1.287874801937 59.987878015955 588 0.099999759933 0.100012763801 58.800002975236 5.8800005968714
79	721849 23687 1046 328432 1.262218641827 59.962221856005 588 0.099999759936 0.100012763295 58.800002975396 5.8800005969035
78	745536 16119 1176 328556 1.287874801937 59.987878015955 588 3 3 1764 5292
77	761655 16103 1046 328432 1.262218641827 59.962221856005 588 3 3 1764 5292
76	777758 858 5171 328665 2 60 59 0 0 0 0
75	778616 1213 5171 328665 2 60 59 0.023297 0.02625 1.545797 0.040508375209
74	779829 858 5171 328665 2 60 59 3 3 177 531
95	780687 19058 236 328178 1.11 59.91 589 -1.4996309125568 1.5 -15.523056711816 967.70518966442
94	799745 19156 236 328178 1.11 59.91 589 -1.4560433097571 1.4292962594432 -11.63396759164 653.26198210995
93	818901 12670 236 328178 1.11 59.91 589 36.55 36.55 21527.95 786846.5725
92	831571 18495 236 328178 1.11 59.91 589 110.22663612366 2074.4884114332 644170.53543388 894156356.8447
91	850066 18489 236 328178 1.11 59.91 589 32.059502162733 35.26937792282 19675.549933599 657690.52470975
89	868555 20513 236 328178 1.11 59.91 589 -0.013442523953579 0.011890497963904 0.073893266423681 0.033713497719762
88	889068 18473 236 328178 1.11 59.91 589 19.978354065395 20.022255138269 11777.081699691 235483.33398686
90	907541 10314 236 328178 1.11 59.91 589 4 4 2356 9424
102	917855 24289 1108 328494 1.276580721882 59.976583936045 588 0.099999759934 0.100012763824 58.800002975381 5.8800005969004
101	942144 24287 1052 328438 1.262218721883 59.962221936045 588 0.099999759933 0.100012763296 58.80000297538 5.8800005969003
100	966431 16702 1108 328494 1.276580721882 59.976583936045 588 4 4 2352 9408
99	983133 16119 1052 328438 1.262218721883 59.962221936045 588 4 4 2352 9408
98	999252 858 5172 328666 2 60 59 0 0 0 0
97	1000110 1213 5172 328666 2 60 59 0.023297 0.02625 1.545797 0.040508375209
96	1001323 858 5172 328666 2 60 59 4 4 236 944
117	1002181 18398 237 328179 1.11 59.91 589 -1.508227552324 1.5070927524302 -15.899101613258 983.25839860634
116	1020579 19737 237 328179 1.11 59.91 589 -1.4565901518502 1.4325474494143 -11.751568248673 658.09297422222
115	1040316 13259 237 328179 1.11 59.91 589 36.55 36.55 21527.95 786846.5725
114	1053575 19074 237 328179 1.11 59.91 589 86.22663230896 2050.47888694 630036.50212472 863581053.18789
113	1072649 19095 237 328179 1.11 59.91 589 32.054495159075 35.271240805778 19675.450516689 657686.64912717
111	1091744 20750 237 328179 1.11 59.91 589 -0.030545829879422 0.032214832095306 0.21575658560615 0.25523668777055
110	1112494 19076 237 328179 1.11 59.91 589 19.977688860523 20.019410549262 11778.031320823 235521.31648092
112	1131570 10903 237 328179 1.11 59.91 589 5 5 2945 14725
124	1142473 24300 1244 328630 1.297504962048 59.997508176084 588 0.099999759931 0.100012763589 58.800002975254 5.880000596875
123	1166773 24295 1058 328444 1.262218801938 59.962222016134 588 0.099999759934 0.100012763298 58.800002975414 5.8800005969071
122	1191068 16708 1244 328630 1.297504962048 59.997508176084 588 5 5 2940 14700
121	1207776 16710 1058 328444 1.262218801938 59.962222016134 588 5 5 2940 14700
120	1224486 917 5173 328667 2 60 59 0 0 0 0
119	1225403 1272 5173 328667 2 60 59 0.023297 0.02625 1.545797 0.040508375209
118	1226675 917 5173 328667 2 60 59 5 5 295 1475
139	1227592 19631 238 328180 1.11 59.91 589 -1.4953972032488 1.49590389485 -15.577838724467 964.45060990107
138	1247223 19739 238 328180 1.11 59.91 589 -1.4603980165511 1.4356292471724 -11.653395305426 660.73170203645
137	1266962 13259 238 328180 1.11 59.91 589 36.55 36.55 21527.95 786846.5725
136	1280221 19080 238 328180 1.11 59.91 589 62.22663230896 2026.5012609326 615902.98867473 833685852.99316
135	1299301 19067 238 328180 1.11 59.91 589 32.053088714535 35.27516158853 19675.677936387 657703.49307743
133	1318368 21159 238 328180 1.11 59.91 589 -0.010290747787295 0.010619141271668 -0.10990401529025 0.030431780905309
132	1339527 19080 238 328180 1.11 59.91 589 19.967926513808 20.027592273843 11777.517998382 235500.86075993
134	1358607 10903 238 328180 1.11 59.91 589 6 6 3534 21204
146	1369510 24298 970 328350 1.247596081439 59.947599295155 588 0.09999975992 0.100012763853 58.800002974934 5.880000596811
145	1393808 24294 1064 328450 1.262218881993 59.962222096113 588 0.099999759935 0.100012763292 58.800002975338 5.8800005968919
144	1418102 16718 970 328350 1.247596081439 59.947599295155 588 6 6 3528 21168
143	1434820 16708 1064 328450 1.262218881993 59.962222096113 588 6 6 3528 21168
142	1451528 917 5174 328668 2 60 59 0 0 0 0
141	1452445 1272 5174 328668 2 60 59 0.023297 0.02625 1.545797 0.040508375209
140	1453717 917 5174 328668 2 60 59 6 6 354 2124
161	1454634 19643 239 328181 1.11 59.91 589 -1.4856633853362 1.4866431862894 -15.477373309319 939.52517233296
160	1474277 19731 239 328181 1.11 59.91 589 -1.4555085905279 1.4303025341015 -11.567800085808 655.72349117608
159	1494008 13259 239 328181 1.11 59.91 589 36.55 36.55 21527.95 786846.5725
158	1507267 19071 239 328181 1.11 59.91 589 38.226633262634 2002.5088614277 601770.00214079 804470072.5154
157	1526338 19086 239 328181 1.11 59.91 589 32.059092270643 35.270045339464 19675.756842171 657705.53554723
155	1545424 21182 239 328181 1.11 59.91 589 -0.0097156221029309 0.0092554884329559 0.03762816869515 0.025650971741655
154	1566606 19092 239 328181 1.11 59.91 589 19.982546991284 20.013502926739 11776.988112057 235479.56687631
156	1585698 10903 239 328181 1.11 59.91 589 7 7 4123 28861
168	1596601 24294 832 328218 1.212137841273 59.912128055165 588 0.099999759918 0.100012762793 58.79998997511 5.8799979966835
167	1620895 24284 1070 328456 1.262218962049 59.962222176142 588 0.099999759934 0.100012763293 58.800002975311 5.8800005968864
166	1645179 16707 832 328218 1.212137841273 59.912128055165 588 7 7 4116 28812
165	1661886 16689 1070 328456 1.262218962049 59.962222176142 588 7 7 4116 28812
164	1678575 917 5175 328669 2 60 59 0 0 0 0
163	1679492 1272 5175 328669 2 60 59 0.023297 0.02625 1.545797 0.040508375209
162	1680764 917 5175 328669 2 60 59 7 7 413 2891
