file 1684034 1501512836                                         
version 2
run SinusoidalNoAttack-39-20170731-16:53:26-28342
attr CACCSpacing 12.5
attr attackAcc -30
attr attackPos 7
attr attackSpeed 150
attr attackStart 30
attr attacker 0
attr beaconInterval 0.1
attr configname SinusoidalNoAttack
attr controller 1
attr datetime 20170731-16:53:26
attr experiment SinusoidalNoAttack
attr fakeAcc "(0 == 4)"
attr fakePos "(0 == 2)"
attr fakeSpeed "(0 == 3)"
attr inifile omnetpp_39.ini
attr iterationvars "$controller=1, $sController=\"CACC\", $CACCSpacing=12.5, $leaderSpeed=100, $attacker=0, $attackStart=30, $attackSpeed=150, $attackPos=7, $attackAcc=-30, $0=12.5, $1=0, $nCars=8, $platoonSize=8, $nLanes=1, $beaconInterval=0.1, $priority=2, $packetSize=200, $ploegH=0.5, $leaderHeadway=1.2, $fakeSpeed=(0 == 3), $fakeAcc=(0 == 4), $fakePos=(0 == 2)"
attr iterationvarsf controller=1,sController=CACC,CACCSpacing=12.5,leaderSpeed=100,attacker=0,attackStart=30,attackSpeed=150,attackPos=7,attackAcc=-30,12.5,0,nCars=8,platoonSize=8,nLanes=1,beaconInterval=0.1,priority=2,packetSize=200,ploegH=0.5,leaderHeadway=1.2,fakeSpeed=(0_==_3),fakeAcc=(0_==_4),fakePos=(0_==_2)-
attr leaderHeadway 1.2
attr leaderSpeed 100
attr measurement "$controller=1, $sController=\"CACC\", $CACCSpacing=12.5, $leaderSpeed=100, $attacker=0, $attackStart=30, $attackSpeed=150, $attackPos=7, $attackAcc=-30, $0=12.5, $1=0, $nCars=8, $platoonSize=8, $nLanes=1, $beaconInterval=0.1, $priority=2, $packetSize=200, $ploegH=0.5, $leaderHeadway=1.2, $fakeSpeed=(0 == 3), $fakeAcc=(0 == 4), $fakePos=(0 == 2)"
attr nCars 8
attr nLanes 1
attr network scenario
attr packetSize 200
attr platoonSize 8
attr ploegH 0.5
attr priority 2
attr processid 28342
attr repetition 4
attr replication #4
attr resultdir results
attr runnumber 39
attr sController "\"CACC\""
attr seedset 4
param **.coreDebug false
param **.debug false
param **.headway 0.1s
param **.numberOfCars 8
param **.numberOfCarsPerPlatoon 8
param **.numberOfLanes 1
param **.numericController 1
param **.traffic.nCars 8
param **.traffic.nLanes 1
param **.traffic.platoonInsertDistance 12.5m
param **.traffic.platoonInsertHeadway 0s
param **.traffic.platoonInsertSpeed 100kmph
param **.traffic.platoonInsertTime "1 s"
param **.traffic.platoonLeaderHeadway 1.2s
param **.traffic.platoonSize 8
param **.traffic.platooningVType "\"vtypeauto\""
param **.traffic_type "\"PlatoonsTrafficManager\""
param *.**.nic.mac1609_4.bitrate 6Mbps
param *.**.nic.mac1609_4.txPower 100mW
param *.**.nic.mac1609_4.useServiceChannel false
param *.**.nic.phy80211p.analogueModels "xmldoc(\"config.xml\")"
param *.**.nic.phy80211p.decider "xmldoc(\"config.xml\")"
param *.**.nic.phy80211p.maxTXPower 100mW
param *.**.nic.phy80211p.sensitivity -94dBm
param *.**.nic.phy80211p.thermalNoise -95dBm
param *.**.nic.phy80211p.usePropagationDelay true
param *.**.nic.phy80211p.useThermalNoise true
param *.annotations.draw false
param *.connectionManager.alpha 2.0
param *.connectionManager.carrierFrequency "5.890e9 Hz"
param *.connectionManager.pMax 100mW
param *.connectionManager.sat -94dBm
param *.connectionManager.sendDirect true
param *.manager.autoShutdown true
param *.manager.commandLine "\"sumo --remote-port $port --seed $seed --configuration-file $configFile\""
param *.manager.configFile "\"./sumocfg/freeway.sumo.cfg\""
param *.manager.host "\"localhost\""
param *.manager.margin 25
param *.manager.moduleDisplayString "\"\""
param *.manager.moduleName "\"node\""
param *.manager.moduleType "\"Car\""
param *.manager.updateInterval 0.01s
param *.node[*].appl.attackStart 30s
param *.node[*].appl.attackerType 0
param *.node[*].appl.simulationDuration "60 s"
param *.node[*].appl_type "\"SimplePlatooningApp\""
param *.node[*].helper.nCars 8
param *.node[*].helper.nLanes 1
param *.node[*].helper.platoonSize 8
param *.node[*].helper_type "\"PositionHelper\""
param *.node[*].mobility.x 0
param *.node[*].mobility.y 0
param *.node[*].mobility.z 1.895
param *.node[*].prot.attackStart 30s
param *.node[*].prot.attackerType 0
param *.node[*].prot.attackingNode 3
param *.node[*].prot.beaconingInterval 0.1s
param *.node[*].prot.fakeAcc "(0 == 4)"
param *.node[*].prot.fakePos "(0 == 2)"
param *.node[*].prot.fakeSpeed "(0 == 3)"
param *.node[*].prot.maliciousAcc "-30 mpss"
param *.node[*].prot.maliciousSpeed 150kmph
param *.node[*].prot.packetSize 200
param *.node[*].prot.priority 2
param *.node[*].prot.shiftX "7 m"
param *.node[*].prot.useControllerAcceleration true
param *.node[*].protocol_type "\"SimplePlatooningBeaconing\""
param *.node[*].scenario.accHeadway 0.1s
param *.node[*].scenario.caccC1 0.5
param *.node[*].scenario.caccOmegaN "0.2 Hz"
param *.node[*].scenario.caccSpacing 12.5m
param *.node[*].scenario.caccXi 1
param *.node[*].scenario.controller "\"CACC\""
param *.node[*].scenario.engineTau "0.5 s"
param *.node[*].scenario.leaderHeadway 1.2s
param *.node[*].scenario.leaderOscillationFrequency "0.2 Hz"
param *.node[*].scenario.leaderSpeed 100kmph
param *.node[*].scenario.oscillationAmplitude "10 kmph"
param *.node[*].scenario.ploegH 0.5s
param *.node[*].scenario.ploegKd 0.7
param *.node[*].scenario.ploegKp 0.2
param *.node[*].scenario.startOscillating "5 s"
param *.node[*].scenario.useRealisticEngine false
param *.node[*].scenario_type "\"SinusoidalScenario\""
param *.node[*].unicast.packetLossRate 0
param *.obstacles.debug false
param *.playgroundSizeX 65000m
param *.playgroundSizeY 25000m
param *.playgroundSizeZ 50m
param *.world.use2D false
param *.world.useTorus false

vector 0  scenario.node[0].appl  distance  ETV
vector 1  scenario.node[0].appl  relativeSpeed  ETV
vector 2  scenario.node[0].appl  nodeId  ETV
vector 6  scenario.node[0].appl  acceleration  ETV
vector 7  scenario.node[0].appl  controllerAcceleration  ETV
vector 3  scenario.node[0].appl  speed  ETV
vector 4  scenario.node[0].appl  posx  ETV
vector 5  scenario.node[0].appl  posy  ETV
vector 22  scenario.node[1].appl  distance  ETV
vector 23  scenario.node[1].appl  relativeSpeed  ETV
vector 24  scenario.node[1].appl  nodeId  ETV
vector 28  scenario.node[1].appl  acceleration  ETV
vector 29  scenario.node[1].appl  controllerAcceleration  ETV
vector 25  scenario.node[1].appl  speed  ETV
vector 26  scenario.node[1].appl  posx  ETV
vector 27  scenario.node[1].appl  posy  ETV
vector 44  scenario.node[2].appl  distance  ETV
vector 45  scenario.node[2].appl  relativeSpeed  ETV
vector 46  scenario.node[2].appl  nodeId  ETV
vector 50  scenario.node[2].appl  acceleration  ETV
vector 51  scenario.node[2].appl  controllerAcceleration  ETV
vector 47  scenario.node[2].appl  speed  ETV
vector 48  scenario.node[2].appl  posx  ETV
vector 49  scenario.node[2].appl  posy  ETV
vector 66  scenario.node[3].appl  distance  ETV
vector 67  scenario.node[3].appl  relativeSpeed  ETV
vector 68  scenario.node[3].appl  nodeId  ETV
vector 72  scenario.node[3].appl  acceleration  ETV
vector 73  scenario.node[3].appl  controllerAcceleration  ETV
vector 69  scenario.node[3].appl  speed  ETV
vector 70  scenario.node[3].appl  posx  ETV
vector 71  scenario.node[3].appl  posy  ETV
vector 88  scenario.node[4].appl  distance  ETV
vector 89  scenario.node[4].appl  relativeSpeed  ETV
vector 90  scenario.node[4].appl  nodeId  ETV
vector 94  scenario.node[4].appl  acceleration  ETV
vector 95  scenario.node[4].appl  controllerAcceleration  ETV
vector 91  scenario.node[4].appl  speed  ETV
vector 92  scenario.node[4].appl  posx  ETV
vector 93  scenario.node[4].appl  posy  ETV
vector 110  scenario.node[5].appl  distance  ETV
vector 111  scenario.node[5].appl  relativeSpeed  ETV
vector 112  scenario.node[5].appl  nodeId  ETV
vector 116  scenario.node[5].appl  acceleration  ETV
vector 117  scenario.node[5].appl  controllerAcceleration  ETV
vector 113  scenario.node[5].appl  speed  ETV
vector 114  scenario.node[5].appl  posx  ETV
vector 115  scenario.node[5].appl  posy  ETV
vector 132  scenario.node[6].appl  distance  ETV
vector 133  scenario.node[6].appl  relativeSpeed  ETV
vector 134  scenario.node[6].appl  nodeId  ETV
vector 138  scenario.node[6].appl  acceleration  ETV
vector 139  scenario.node[6].appl  controllerAcceleration  ETV
vector 135  scenario.node[6].appl  speed  ETV
vector 136  scenario.node[6].appl  posx  ETV
vector 137  scenario.node[6].appl  posy  ETV
vector 154  scenario.node[7].appl  distance  ETV
vector 155  scenario.node[7].appl  relativeSpeed  ETV
vector 156  scenario.node[7].appl  nodeId  ETV
vector 160  scenario.node[7].appl  acceleration  ETV
vector 161  scenario.node[7].appl  controllerAcceleration  ETV
vector 157  scenario.node[7].appl  speed  ETV
vector 158  scenario.node[7].appl  posx  ETV
vector 159  scenario.node[7].appl  posy  ETV
vector 102  scenario.node[4].prot  frontDelay  ETV
vector 100  scenario.node[4].prot  frontDelayId  ETV
vector 35  scenario.node[1].prot  leaderDelay  ETV
vector 33  scenario.node[1].prot  leaderDelayId  ETV
vector 36  scenario.node[1].prot  frontDelay  ETV
vector 34  scenario.node[1].prot  frontDelayId  ETV
vector 57  scenario.node[2].prot  leaderDelay  ETV
vector 55  scenario.node[2].prot  leaderDelayId  ETV
vector 79  scenario.node[3].prot  leaderDelay  ETV
vector 77  scenario.node[3].prot  leaderDelayId  ETV
vector 101  scenario.node[4].prot  leaderDelay  ETV
vector 99  scenario.node[4].prot  leaderDelayId  ETV
vector 123  scenario.node[5].prot  leaderDelay  ETV
vector 121  scenario.node[5].prot  leaderDelayId  ETV
vector 145  scenario.node[6].prot  leaderDelay  ETV
vector 143  scenario.node[6].prot  leaderDelayId  ETV
vector 167  scenario.node[7].prot  leaderDelay  ETV
vector 165  scenario.node[7].prot  leaderDelayId  ETV
vector 80  scenario.node[3].prot  frontDelay  ETV
vector 78  scenario.node[3].prot  frontDelayId  ETV
vector 146  scenario.node[6].prot  frontDelay  ETV
vector 144  scenario.node[6].prot  frontDelayId  ETV
vector 58  scenario.node[2].prot  frontDelay  ETV
vector 56  scenario.node[2].prot  frontDelayId  ETV
vector 124  scenario.node[5].prot  frontDelay  ETV
vector 122  scenario.node[5].prot  frontDelayId  ETV
vector 168  scenario.node[7].prot  frontDelay  ETV
vector 166  scenario.node[7].prot  frontDelayId  ETV
vector 8  scenario.node[0].prot  nodeId  ETV
vector 9  scenario.node[0].prot  busyTime  ETV
vector 10  scenario.node[0].prot  collisions  ETV
vector 30  scenario.node[1].prot  nodeId  ETV
vector 31  scenario.node[1].prot  busyTime  ETV
vector 32  scenario.node[1].prot  collisions  ETV
vector 52  scenario.node[2].prot  nodeId  ETV
vector 53  scenario.node[2].prot  busyTime  ETV
vector 54  scenario.node[2].prot  collisions  ETV
vector 74  scenario.node[3].prot  nodeId  ETV
vector 75  scenario.node[3].prot  busyTime  ETV
vector 76  scenario.node[3].prot  collisions  ETV
vector 96  scenario.node[4].prot  nodeId  ETV
vector 97  scenario.node[4].prot  busyTime  ETV
vector 98  scenario.node[4].prot  collisions  ETV
vector 118  scenario.node[5].prot  nodeId  ETV
vector 119  scenario.node[5].prot  busyTime  ETV
vector 120  scenario.node[5].prot  collisions  ETV
vector 140  scenario.node[6].prot  nodeId  ETV
vector 141  scenario.node[6].prot  busyTime  ETV
vector 142  scenario.node[6].prot  collisions  ETV
vector 162  scenario.node[7].prot  nodeId  ETV
vector 163  scenario.node[7].prot  busyTime  ETV
vector 164  scenario.node[7].prot  collisions  ETV
7	11241 13860 232 328174 1.11 59.91 589 -1.5 1.5 -14.445974034379 993.24092368185
6	25101 18594 232 328174 1.11 59.91 589 -1.4722746794938 1.4513434175793 -12.50726914995 675.29835222675
5	43695 12081 232 328174 1.11 59.91 589 36.55 36.55 21527.95 786846.5725
4	55776 17911 232 328174 1.11 59.91 589 164.55297012302 1802.2024356655 580029.23609419 702985086.43796
3	73687 17905 232 328174 1.11 59.91 589 26.487965859734 29.742492528104 16403.83880962 457295.15275867
1	91592 9725 232 328174 1.11 59.91 589 0 0 0 0
0	101317 10314 232 328174 1.11 59.91 589 -1 -1 -589 589
2	111631 9725 232 328174 1.11 59.91 589 0 0 0 0
10	121356 859 5234 328728 2 60 59 0 0 0 0
9	122215 1155 5234 328728 2 60 59 0.023625 0.02625 1.546125 0.040523765625
8	123370 800 5234 328728 2 60 59 0 0 0 0
29	124170 19089 233 328175 1.11 59.91 589 -1.5034793451591 1.5024511554313 -15.505717498918 989.15336675211
28	143259 19173 233 328175 1.11 59.91 589 -1.4807765144067 1.4557932580932 -12.221053919494 676.42621456379
27	162432 12670 233 328175 1.11 59.91 589 36.55 36.55 21527.95 786846.5725
26	175102 18504 233 328175 1.11 59.91 589 148.05297775269 1785.7670125865 570311.36981308 684005902.79297
25	193606 18499 233 328175 1.11 59.91 589 26.487285777031 29.749129049758 16404.495523594 457332.59242026
23	212105 20078 233 328175 1.11 59.91 589 -0.064317348051933 0.06203633318373 -0.53164128320712 1.2272974794917
22	232183 18491 233 328175 1.11 59.91 589 12.416222646848 12.593464628621 7361.8794153936 92016.969617773
24	250674 10314 233 328175 1.11 59.91 589 1 1 589 589
36	260988 23708 964 328350 1.24182365114 59.941815387713 588 0.099999209348 0.100012212805 58.799990947409 5.8799981950449
35	284696 23708 964 328350 1.24182365114 59.941815387713 588 0.099999209348 0.100012212805 58.799990947409 5.8799981950449
34	308404 16118 964 328350 1.24182365114 59.941815387713 588 1 1 588 588
33	324522 16118 964 328350 1.24182365114 59.941815387713 588 1 1 588 588
32	340640 859 5235 328729 2 60 59 0 0 0 0
31	341499 1214 5235 328729 2 60 59 0.023625 0.02625 1.546125 0.040523765625
30	342713 859 5235 328729 2 60 59 1 1 59 59
51	343572 19095 234 328176 1.11 59.91 589 -1.5169291674391 1.5151528988626 -15.6012799206 999.48201686984
50	362667 19162 234 328176 1.11 59.91 589 -1.4744691998935 1.4486483728763 -12.050533346083 671.79687329688
49	381829 12670 234 328176 1.11 59.91 589 36.55 36.55 21527.95 786846.5725
48	394499 18482 234 328176 1.11 59.91 589 131.55297775269 1769.2886357838 560593.16345994 665347037.277
47	412981 18496 234 328176 1.11 59.91 589 26.489806976314 29.742477308343 16404.718061898 457341.77919601
45	431477 20323 234 328176 1.11 59.91 589 -0.01868336836602 0.016164909474146 -0.10032776476755 0.06385330927872
44	451800 18462 234 328176 1.11 59.91 589 12.467783908184 12.543059204495 7362.2108039045 92024.201186644
46	470262 10314 234 328176 1.11 59.91 589 2 2 1178 2356
58	480576 23702 1176 328562 1.281933146482 59.981937882646 588 0.099999209341 0.100012212583 58.800003947 5.8800007951115
57	504278 23691 970 328356 1.241823706178 59.941815442677 588 0.099999209348 0.10001221281 58.799990947335 5.8799981950301
56	527969 16113 1176 328562 1.281933146482 59.981937882646 588 2 2 1176 2352
55	544082 16106 970 328356 1.241823706178 59.941815442677 588 2 2 1176 2352
54	560188 859 5236 328730 2 60 59 0 0 0 0
53	561047 1214 5236 328730 2 60 59 0.023625 0.02625 1.546125 0.040523765625
52	562261 859 5236 328730 2 60 59 2 2 118 236
73	563120 19119 235 328177 1.11 59.91 589 -1.4985212132295 1.4980940318178 -15.551135052141 975.17533049476
72	582239 19196 235 328177 1.11 59.91 589 -1.4637938066883 1.4376572673999 -11.86334789207 661.19219141372
71	601435 12670 235 328177 1.11 59.91 589 36.55 36.55 21527.95 786846.5725
70	614105 18488 235 328177 1.11 59.91 589 115.05297775269 1752.8007895329 550874.93990104 647009126.28115
69	632593 18491 235 328177 1.11 59.91 589 26.499289932393 29.732222966292 16404.846405146 457342.21128752
67	651084 20504 235 328177 1.11 59.91 589 -0.01554864320719 0.013756976571635 -0.007837914253976 0.03231082578591
66	671588 18485 235 328177 1.11 59.91 589 12.473851872816 12.53874109613 7362.2261257659 92024.517134274
68	690073 10314 235 328177 1.11 59.91 589 3 3 1767 5301
80	700387 23685 1040 328426 1.262750761216 59.962755497671 588 0.099999209347 0.100012212662 58.800003947291 5.8800007951698
79	724072 23717 976 328362 1.241823761216 59.941815497673 588 0.099999209346 0.100012212816 58.799990947293 5.8799981950216
78	747789 16100 1040 328426 1.262750761216 59.962755497671 588 3 3 1764 5292
77	763889 16124 976 328362 1.241823761216 59.941815497673 588 3 3 1764 5292
76	780013 859 5237 328731 2 60 59 0 0 0 0
75	780872 1214 5237 328731 2 60 59 0.023625 0.02625 1.546125 0.040523765625
74	782086 859 5237 328731 2 60 59 3 3 177 531
95	782945 19064 236 328178 1.11 59.91 589 -1.4920639047618 1.4922979453288 -15.604521462954 959.38421611789
94	802009 19182 236 328178 1.11 59.91 589 -1.4606979745277 1.4336512038668 -11.628344855319 657.77645937886
93	821191 12670 236 328178 1.11 59.91 589 36.55 36.55 21527.95 786846.5725
92	833861 18484 236 328178 1.11 59.91 589 98.552977752686 1736.3310188556 541156.69309923 628992110.27232
91	852345 18486 236 328178 1.11 59.91 589 26.503753779335 29.729614316783 16405.157398843 457357.2364393
89	870831 20164 236 328178 1.11 59.91 589 -0.026253905628135 0.025337578988069 -0.1923602183586 0.19499445530093
88	890995 18468 236 328178 1.11 59.91 589 12.458080427263 12.554501254166 7362.2530216798 92025.406386216
90	909463 10314 236 328178 1.11 59.91 589 4 4 2356 9424
102	919777 24280 904 328284 1.240526486026 59.940531223048 588 0.099999209335 0.100012212835 58.800003947858 5.8800007952832
101	944057 24283 982 328368 1.241823816254 59.941815552607 588 0.099999209347 0.100012212822 58.799990947189 5.8799981950009
100	968340 16698 904 328284 1.240526486026 59.940531223048 588 4 4 2352 9408
99	985038 16100 982 328368 1.241823816254 59.941815552607 588 4 4 2352 9408
98	1001138 859 5238 328732 2 60 59 0 0 0 0
97	1001997 1214 5238 328732 2 60 59 0.023625 0.02625 1.546125 0.040523765625
96	1003211 859 5238 328732 2 60 59 4 4 236 944
117	1004070 19674 237 328179 1.11 59.91 589 -1.4980277580765 1.4988827228405 -15.56453462663 972.70727571104
116	1023744 19769 237 328179 1.11 59.91 589 -1.4539403001471 1.4286559869479 -11.691113699978 653.6159792688
115	1043513 13259 237 328179 1.11 59.91 589 36.55 36.55 21527.95 786846.5725
114	1056772 19085 237 328179 1.11 59.91 589 82.052977752686 1719.8144585622 531438.58082913 611295776.56281
113	1075857 19078 237 328179 1.11 59.91 589 26.506799760283 29.721801068276 16404.989301255 457345.20359682
111	1094935 20693 237 328179 1.11 59.91 589 -0.034429573566392 0.035220539015093 0.28438103655042 0.36851191071283
110	1115628 19070 237 328179 1.11 59.91 589 12.47748927393 12.529040600273 7362.1089081472 92021.563198804
112	1134698 10903 237 328179 1.11 59.91 589 5 5 2945 14725
124	1145601 24280 1242 328628 1.287403311596 59.987395047666 588 0.099999209336 0.100012212834 58.800003946906 5.8800007950928
123	1169881 24275 988 328374 1.241823871292 59.941815607701 588 0.099999209345 0.100012212821 58.799990947245 5.879998195012
122	1194156 16710 1242 328628 1.287403311596 59.987395047666 588 5 5 2940 14700
121	1210866 16698 988 328374 1.241823871292 59.941815607701 588 5 5 2940 14700
120	1227564 918 5239 328733 2 60 59 0 0 0 0
119	1228482 1273 5239 328733 2 60 59 0.023625 0.02625 1.546125 0.040523765625
118	1229755 918 5239 328733 2 60 59 5 5 295 1475
139	1230673 19676 238 328180 1.11 59.91 589 -1.4889617845482 1.4892820647949 -15.439957560614 953.20495848784
138	1250349 19776 238 328180 1.11 59.91 589 -1.4484613858414 1.4236625966458 -11.653699125901 647.40831800887
137	1270125 13259 238 328180 1.11 59.91 589 36.55 36.55 21527.95 786846.5725
136	1283384 19092 238 328180 1.11 59.91 589 65.552977752686 1703.3100826218 521720.3997579 593920220.80704
135	1302476 19083 238 328180 1.11 59.91 589 26.513052489922 29.713351778493 16404.946818928 457339.02751514
133	1321559 20768 238 328180 1.11 59.91 589 -0.018955503450687 0.019374160277589 0.15939346412277 0.10920743702072
132	1342327 19073 238 328180 1.11 59.91 589 12.489891158171 12.515069031397 7362.1802215861 92023.272931613
134	1361400 10903 238 328180 1.11 59.91 589 6 6 3534 21204
146	1372303 24284 1106 328486 1.26671292633 59.966704662751 588 0.099999209343 0.100012212872 58.799990947257 5.8799981950145
145	1396587 24285 994 328380 1.24182392633 59.941815662754 588 0.099999209343 0.100012212824 58.79999094726 5.8799981950151
144	1420872 16701 1106 328486 1.26671292633 59.966704662751 588 6 6 3528 21168
143	1437573 16701 994 328380 1.24182392633 59.941815662754 588 6 6 3528 21168
142	1454274 918 5240 328734 2 60 59 0 0 0 0
141	1455192 1273 5240 328734 2 60 59 0.023625 0.02625 1.546125 0.040523765625
140	1456465 918 5240 328734 2 60 59 6 6 354 2124
161	1457383 19677 239 328181 1.11 59.91 589 -1.4963534245933 1.496618850832 -15.491115172701 972.3744757294
160	1477060 19770 239 328181 1.11 59.91 589 -1.4517793623039 1.4282120484555 -11.787771543338 653.87841399652
159	1496830 13259 239 328181 1.11 59.91 589 36.55 36.55 21527.95 786846.5725
158	1510089 19092 239 328181 1.11 59.91 589 49.052977752686 1686.8010962835 512002.29137712 576865197.59104
157	1529181 19081 239 328181 1.11 59.91 589 26.50624924674 29.71772949008 16404.852061186 457337.61565046
155	1548262 20713 239 328181 1.11 59.91 589 -0.03190053587797 0.034536303187984 0.21129473314452 0.27929141215102
154	1568975 19078 239 328181 1.11 59.91 589 12.477560307687 12.522935419561 7362.1064856251 92021.473014556
156	1588053 10903 239 328181 1.11 59.91 589 7 7 4123 28861
168	1598956 24272 1308 328694 1.289467421672 59.989472157789 588 0.099999209337 0.100012212477 58.800003946953 5.8800007951021
167	1623228 24291 1000 328386 1.241823981369 59.941815717823 588 0.099999209344 0.10001221282 58.79999094729 5.8799981950211
166	1647519 16704 1308 328694 1.289467421672 59.989472157789 588 7 7 4116 28812
165	1664223 16702 1000 328386 1.241823981369 59.941815717823 588 7 7 4116 28812
164	1680925 918 5241 328735 2 60 59 0 0 0 0
163	1681843 1273 5241 328735 2 60 59 0.023625 0.02625 1.546125 0.040523765625
162	1683116 918 5241 328735 2 60 59 7 7 413 2891
