file 898979 1512142280                                          
version 2
run SinusoidalSpeedInjectionAttack-184-20171201-16:31:03-121362
attr CACCSpacing 5
attr attackAcc -30
attr attackPos 7
attr attackSpeed 100
attr attackStart 30
attr attacker 3
attr beaconInterval 0.1
attr configname SinusoidalSpeedInjectionAttack
attr controller 1
attr datetime 20171201-16:31:03
attr experiment SinusoidalSpeedInjectionAttack
attr fakeAcc "(3 == 4)"
attr fakePos "(3 == 2)"
attr fakeSpeed "(3 == 3)"
attr inifile omnetpp_184.ini
attr iterationvars "$attacker=3, $attackSpeed=100, $attackPos=7, $attackAcc=-30, $leaderSpeed=50, $controller=1, $CACCSpacing=5, $sController=\"CACC\", $attackStart=30, $0=5, $1=0, $nCars=8, $platoonSize=8, $nLanes=1, $beaconInterval=0.1, $priority=2, $packetSize=200, $ploegH=0.5, $leaderHeadway=1.2, $fakeSpeed=(3 == 3), $fakeAcc=(3 == 4), $fakePos=(3 == 2)"
attr iterationvarsf attacker=3,attackSpeed=100,attackPos=7,attackAcc=-30,leaderSpeed=50,controller=1,CACCSpacing=5,sController=CACC,attackStart=30,5,0,nCars=8,platoonSize=8,nLanes=1,beaconInterval=0.1,priority=2,packetSize=200,ploegH=0.5,leaderHeadway=1.2,fakeSpeed=(3_==_3),fakeAcc=(3_==_4),fakePos=(3_==_2)-
attr leaderHeadway 1.2
attr leaderSpeed 50
attr measurement "$attacker=3, $attackSpeed=100, $attackPos=7, $attackAcc=-30, $leaderSpeed=50, $controller=1, $CACCSpacing=5, $sController=\"CACC\", $attackStart=30, $0=5, $1=0, $nCars=8, $platoonSize=8, $nLanes=1, $beaconInterval=0.1, $priority=2, $packetSize=200, $ploegH=0.5, $leaderHeadway=1.2, $fakeSpeed=(3 == 3), $fakeAcc=(3 == 4), $fakePos=(3 == 2)"
attr nCars 8
attr nLanes 1
attr network scenario
attr packetSize 200
attr platoonSize 8
attr ploegH 0.5
attr priority 2
attr processid 121362
attr repetition 4
attr replication #4
attr resultdir results
attr runnumber 184
attr sController "\"CACC\""
attr seedset 4
param **.coreDebug false
param **.debug false
param **.headway 0.1s
param **.numberOfCars 8
param **.numberOfCarsPerPlatoon 8
param **.numberOfLanes 1
param **.numericController 1
param **.traffic.nCars 8
param **.traffic.nLanes 1
param **.traffic.platoonInsertDistance 5m
param **.traffic.platoonInsertHeadway 0s
param **.traffic.platoonInsertSpeed 50kmph
param **.traffic.platoonInsertTime "1 s"
param **.traffic.platoonLeaderHeadway 1.2s
param **.traffic.platoonSize 8
param **.traffic.platooningVType "\"vtypeauto\""
param **.traffic_type "\"PlatoonsTrafficManager\""
param *.**.nic.mac1609_4.bitrate 6Mbps
param *.**.nic.mac1609_4.txPower 100mW
param *.**.nic.mac1609_4.useServiceChannel false
param *.**.nic.phy80211p.analogueModels "xmldoc(\"config.xml\")"
param *.**.nic.phy80211p.decider "xmldoc(\"config.xml\")"
param *.**.nic.phy80211p.maxTXPower 100mW
param *.**.nic.phy80211p.sensitivity -94dBm
param *.**.nic.phy80211p.thermalNoise -95dBm
param *.**.nic.phy80211p.usePropagationDelay true
param *.**.nic.phy80211p.useThermalNoise true
param *.annotations.draw false
param *.connectionManager.alpha 2.0
param *.connectionManager.carrierFrequency "5.890e9 Hz"
param *.connectionManager.pMax 100mW
param *.connectionManager.sat -94dBm
param *.connectionManager.sendDirect true
param *.manager.autoShutdown true
param *.manager.commandLine "\"sumo --remote-port $port --seed $seed --configuration-file $configFile\""
param *.manager.configFile "\"./sumocfg/freeway.sumo.cfg\""
param *.manager.host "\"localhost\""
param *.manager.margin 25
param *.manager.moduleDisplayString "\"\""
param *.manager.moduleName "\"node\""
param *.manager.moduleType "\"Car\""
param *.manager.updateInterval 0.01s
param *.node[*].appl.attackStart 30s
param *.node[*].appl.attackerType 3
param *.node[*].appl.simulationDuration "60 s"
param *.node[*].appl_type "\"SimplePlatooningApp\""
param *.node[*].helper.nCars 8
param *.node[*].helper.nLanes 1
param *.node[*].helper.platoonSize 8
param *.node[*].helper_type "\"PositionHelper\""
param *.node[*].mobility.x 0
param *.node[*].mobility.y 0
param *.node[*].mobility.z 1.895
param *.node[*].prot.attackStart 30s
param *.node[*].prot.attackerType 3
param *.node[*].prot.attackingNode 3
param *.node[*].prot.beaconingInterval 0.1s
param *.node[*].prot.fakeAcc "(3 == 4)"
param *.node[*].prot.fakePos "(3 == 2)"
param *.node[*].prot.fakeSpeed "(3 == 3)"
param *.node[*].prot.maliciousAcc "-30 mpss"
param *.node[*].prot.maliciousSpeed 100kmph
param *.node[*].prot.packetSize 200
param *.node[*].prot.priority 2
param *.node[*].prot.shiftX "7 m"
param *.node[*].prot.useControllerAcceleration true
param *.node[*].protocol_type "\"SimplePlatooningBeaconing\""
param *.node[*].scenario.accHeadway 0.1s
param *.node[*].scenario.caccC1 0.5
param *.node[*].scenario.caccOmegaN "0.2 Hz"
param *.node[*].scenario.caccSpacing 5m
param *.node[*].scenario.caccXi 1
param *.node[*].scenario.controller "\"CACC\""
param *.node[*].scenario.engineTau "0.5 s"
param *.node[*].scenario.leaderHeadway 1.2s
param *.node[*].scenario.leaderSpeed 50kmph
param *.node[*].scenario.ploegH 0.5s
param *.node[*].scenario.ploegKd 0.7
param *.node[*].scenario.ploegKp 0.2
param *.node[*].scenario.useRealisticEngine false
param *.node[*].scenario_type "\"SinusoidalScenario\""
param *.node[*].unicast.packetLossRate 0
param *.obstacles.debug false
param *.playgroundSizeX 65000m
param *.playgroundSizeY 25000m
param *.playgroundSizeZ 50m
param *.world.use2D false
param *.world.useTorus false

vector 0  scenario.node[0].appl  distance  ETV
vector 1  scenario.node[0].appl  relativeSpeed  ETV
vector 2  scenario.node[0].appl  nodeId  ETV
vector 6  scenario.node[0].appl  acceleration  ETV
vector 7  scenario.node[0].appl  controllerAcceleration  ETV
vector 3  scenario.node[0].appl  speed  ETV
vector 4  scenario.node[0].appl  posx  ETV
vector 5  scenario.node[0].appl  posy  ETV
vector 22  scenario.node[1].appl  distance  ETV
vector 23  scenario.node[1].appl  relativeSpeed  ETV
vector 24  scenario.node[1].appl  nodeId  ETV
vector 28  scenario.node[1].appl  acceleration  ETV
vector 29  scenario.node[1].appl  controllerAcceleration  ETV
vector 25  scenario.node[1].appl  speed  ETV
vector 26  scenario.node[1].appl  posx  ETV
vector 27  scenario.node[1].appl  posy  ETV
vector 44  scenario.node[2].appl  distance  ETV
vector 45  scenario.node[2].appl  relativeSpeed  ETV
vector 46  scenario.node[2].appl  nodeId  ETV
vector 50  scenario.node[2].appl  acceleration  ETV
vector 51  scenario.node[2].appl  controllerAcceleration  ETV
vector 47  scenario.node[2].appl  speed  ETV
vector 48  scenario.node[2].appl  posx  ETV
vector 49  scenario.node[2].appl  posy  ETV
vector 66  scenario.node[3].appl  distance  ETV
vector 67  scenario.node[3].appl  relativeSpeed  ETV
vector 68  scenario.node[3].appl  nodeId  ETV
vector 72  scenario.node[3].appl  acceleration  ETV
vector 73  scenario.node[3].appl  controllerAcceleration  ETV
vector 69  scenario.node[3].appl  speed  ETV
vector 70  scenario.node[3].appl  posx  ETV
vector 71  scenario.node[3].appl  posy  ETV
vector 88  scenario.node[4].appl  distance  ETV
vector 89  scenario.node[4].appl  relativeSpeed  ETV
vector 90  scenario.node[4].appl  nodeId  ETV
vector 94  scenario.node[4].appl  acceleration  ETV
vector 95  scenario.node[4].appl  controllerAcceleration  ETV
vector 91  scenario.node[4].appl  speed  ETV
vector 92  scenario.node[4].appl  posx  ETV
vector 93  scenario.node[4].appl  posy  ETV
vector 110  scenario.node[5].appl  distance  ETV
vector 111  scenario.node[5].appl  relativeSpeed  ETV
vector 112  scenario.node[5].appl  nodeId  ETV
vector 116  scenario.node[5].appl  acceleration  ETV
vector 117  scenario.node[5].appl  controllerAcceleration  ETV
vector 113  scenario.node[5].appl  speed  ETV
vector 114  scenario.node[5].appl  posx  ETV
vector 115  scenario.node[5].appl  posy  ETV
vector 132  scenario.node[6].appl  distance  ETV
vector 133  scenario.node[6].appl  relativeSpeed  ETV
vector 134  scenario.node[6].appl  nodeId  ETV
vector 138  scenario.node[6].appl  acceleration  ETV
vector 139  scenario.node[6].appl  controllerAcceleration  ETV
vector 135  scenario.node[6].appl  speed  ETV
vector 136  scenario.node[6].appl  posx  ETV
vector 137  scenario.node[6].appl  posy  ETV
vector 154  scenario.node[7].appl  distance  ETV
vector 155  scenario.node[7].appl  relativeSpeed  ETV
vector 156  scenario.node[7].appl  nodeId  ETV
vector 160  scenario.node[7].appl  acceleration  ETV
vector 161  scenario.node[7].appl  controllerAcceleration  ETV
vector 157  scenario.node[7].appl  speed  ETV
vector 158  scenario.node[7].appl  posx  ETV
vector 159  scenario.node[7].appl  posy  ETV
vector 102  scenario.node[4].prot  frontDelay  ETV
vector 100  scenario.node[4].prot  frontDelayId  ETV
vector 35  scenario.node[1].prot  leaderDelay  ETV
vector 33  scenario.node[1].prot  leaderDelayId  ETV
vector 36  scenario.node[1].prot  frontDelay  ETV
vector 34  scenario.node[1].prot  frontDelayId  ETV
vector 57  scenario.node[2].prot  leaderDelay  ETV
vector 55  scenario.node[2].prot  leaderDelayId  ETV
vector 79  scenario.node[3].prot  leaderDelay  ETV
vector 77  scenario.node[3].prot  leaderDelayId  ETV
vector 101  scenario.node[4].prot  leaderDelay  ETV
vector 99  scenario.node[4].prot  leaderDelayId  ETV
vector 123  scenario.node[5].prot  leaderDelay  ETV
vector 121  scenario.node[5].prot  leaderDelayId  ETV
vector 145  scenario.node[6].prot  leaderDelay  ETV
vector 143  scenario.node[6].prot  leaderDelayId  ETV
vector 167  scenario.node[7].prot  leaderDelay  ETV
vector 165  scenario.node[7].prot  leaderDelayId  ETV
vector 80  scenario.node[3].prot  frontDelay  ETV
vector 78  scenario.node[3].prot  frontDelayId  ETV
vector 146  scenario.node[6].prot  frontDelay  ETV
vector 144  scenario.node[6].prot  frontDelayId  ETV
vector 58  scenario.node[2].prot  frontDelay  ETV
vector 56  scenario.node[2].prot  frontDelayId  ETV
vector 124  scenario.node[5].prot  frontDelay  ETV
vector 122  scenario.node[5].prot  frontDelayId  ETV
vector 168  scenario.node[7].prot  frontDelay  ETV
vector 166  scenario.node[7].prot  frontDelayId  ETV
vector 8  scenario.node[0].prot  nodeId  ETV
vector 9  scenario.node[0].prot  busyTime  ETV
vector 10  scenario.node[0].prot  collisions  ETV
vector 30  scenario.node[1].prot  nodeId  ETV
vector 31  scenario.node[1].prot  busyTime  ETV
vector 32  scenario.node[1].prot  collisions  ETV
vector 52  scenario.node[2].prot  nodeId  ETV
vector 53  scenario.node[2].prot  busyTime  ETV
vector 54  scenario.node[2].prot  collisions  ETV
vector 74  scenario.node[3].prot  nodeId  ETV
vector 75  scenario.node[3].prot  busyTime  ETV
vector 76  scenario.node[3].prot  collisions  ETV
vector 96  scenario.node[4].prot  nodeId  ETV
vector 97  scenario.node[4].prot  busyTime  ETV
vector 98  scenario.node[4].prot  collisions  ETV
vector 118  scenario.node[5].prot  nodeId  ETV
vector 119  scenario.node[5].prot  busyTime  ETV
vector 120  scenario.node[5].prot  collisions  ETV
vector 140  scenario.node[6].prot  nodeId  ETV
vector 141  scenario.node[6].prot  busyTime  ETV
vector 142  scenario.node[6].prot  collisions  ETV
vector 162  scenario.node[7].prot  nodeId  ETV
vector 163  scenario.node[7].prot  busyTime  ETV
vector 164  scenario.node[7].prot  collisions  ETV
7	11084 7577 232 176454 1.11 32.71 317 -1.5 1.5 10.74602282122 498.30984018651
6	18661 9932 232 176454 1.11 32.71 317 -1.472274679513 1.4513407705126 12.673997780877 335.5959615835
5	28593 6369 232 176454 1.11 32.71 317 36.55 36.55 11586.35 423481.0925
4	34962 9506 232 176454 1.11 32.71 317 110.66408882128 553.61492577338 105632.46446905 40408732.381633
3	44468 9505 232 176454 1.11 32.71 317 12.59914837223 15.853603639796 4443.8431118032 62529.943578033
1	53973 5101 232 176454 1.11 32.71 317 0 0 0 0
0	59074 5418 232 176454 1.11 32.71 317 -1 -1 -317 317
2	64492 5101 232 176454 1.11 32.71 317 0 0 0 0
10	69593 439 5234 172544 2 32 31 0 0 0 0
9	70032 595 5234 172544 2 32 31 0.023625 0.02625 0.811125 0.021230015625
8	70627 408 5234 172544 2 32 31 0 0 0 0
29	71035 10192 233 176455 1.11 32.71 317 -1.5034793945977 1.50245114211 11.836910348888 494.32085664816
28	81227 10243 233 176455 1.11 32.71 317 -1.4807765622439 1.4557932512774 12.83012153251 336.27569994908
27	91470 6686 233 176455 1.11 32.71 317 36.55 36.55 11586.35 423481.0925
26	98156 9834 233 176455 1.11 32.71 317 101.66408882141 544.54917894996 102780.07142608 38533815.884816
25	107990 9823 233 176455 1.11 32.71 317 12.598396914678 15.860240752882 4443.1903183555 62512.034460117
23	117813 10727 233 176455 1.11 32.71 317 -0.064317873081331 0.062036134199808 0.5260534699427 0.61096344593191
22	128540 9815 233 176455 1.11 32.71 317 4.91622437847 5.0934696192997 1584.3799870983 7919.4620066368
24	138355 5418 233 176455 1.11 32.71 317 1 1 317 317
36	143773 12610 964 176630 1.241822900623 32.741816655515 316 0.099998628116 0.100011662497 31.599992415349 3.1599984879306
35	156383 12610 964 176630 1.241822900623 32.741816655515 316 0.099998628116 0.100011662497 31.599992415349 3.1599984879306
34	168993 8537 964 176630 1.241822900623 32.741816655515 316 1 1 316 316
33	177530 8537 964 176630 1.241822900623 32.741816655515 316 1 1 316 316
32	186067 439 5235 172545 2 32 31 0 0 0 0
31	186506 626 5235 172545 2 32 31 0.023625 0.02625 0.811125 0.021230015625
30	187132 439 5235 172545 2 32 31 1 1 31 31
51	187571 10199 234 176456 1.11 32.71 317 -1.5169291868394 1.5151528891412 11.940899205763 499.45704086574
50	197770 10244 234 176456 1.11 32.71 317 -1.4744692136986 1.4486483625669 12.824857881077 334.01269526118
49	208014 6686 234 176456 1.11 32.71 317 36.55 36.55 11586.35 423481.0925
48	214700 9824 234 176456 1.11 32.71 317 92.664088821411 535.52662519355 99927.312916189 36709971.715765
47	224524 9827 234 176456 1.11 32.71 317 12.600918184387 15.85358889867 4442.964208901 62503.952921793
45	234351 10828 234 176456 1.11 32.71 317 -0.018683343092555 0.016164856878342 0.097808239152771 0.032722693361289
44	245179 9808 234 176456 1.11 32.71 317 4.9677844923505 5.0430601820761 1584.7539877013 7922.6430620879
46	254987 5418 234 176456 1.11 32.71 317 2 2 634 1268
58	260405 12583 1176 176279 1.28193217081 32.681927273148 315 0.099998628862 0.100011662521 31.499993762795 3.1499987574181
57	272988 12611 970 176636 1.241822930644 32.741816685611 316 0.099998628117 0.100011662495 31.599992415424 3.1599984879456
56	285599 8518 1176 176279 1.28193217081 32.681927273148 315 2 2 630 1260
55	294117 8528 970 176636 1.241822930644 32.741816685611 316 2 2 632 1264
54	302645 439 5236 172546 2 32 31 0 0 0 0
53	303084 626 5236 172546 2 32 31 0.023625 0.02625 0.811125 0.021230015625
52	303710 439 5236 172546 2 32 31 2 2 62 124
73	304149 10195 235 176457 1.11 32.71 317 -1.498521207469 1.4980940761148 12.13713976289 486.79420957151
72	314344 10269 235 176457 1.11 32.71 317 -1.4637937952827 1.4376572541694 12.736820610266 328.77235438575
71	324613 6686 235 176457 1.11 32.71 317 36.55 36.55 11586.35 423481.0925
70	331299 9819 235 176457 1.11 32.71 317 83.664088821411 526.51346837468 97074.47690757 34937528.192142
69	341118 9824 235 176457 1.11 32.71 317 12.610401183747 15.843334440892 4442.8292977115 62496.615379894
67	350942 10911 235 176457 1.11 32.71 317 -0.015548587667887 0.013757102091036 0.0066626106986849 0.01728348140131
66	361853 9813 235 176457 1.11 32.71 317 4.9738525530163 5.0387418270016 1584.8333103953 7923.4047954976
68	371666 5418 235 176457 1.11 32.71 317 3 3 951 2853
80	377084 12569 1040 176143 1.262749960665 32.662758087557 315 0.099998630771 0.100011662364 31.500006787349 3.1500013624625
79	389653 12616 976 176642 1.241822960664 32.741816715676 316 0.09999862812 0.100011662496 31.599992415469 3.1599984879546
78	402269 8500 1040 176143 1.262749960665 32.662758087557 315 3 3 945 2835
77	410769 8533 976 176642 1.241822960664 32.741816715676 316 3 3 948 2844
76	419302 439 5237 172547 2 32 31 0 0 0 0
75	419741 626 5237 172547 2 32 31 0.023625 0.02625 0.811125 0.021230015625
74	420367 439 5237 172547 2 32 31 3 3 93 279
117	420806 10521 237 176459 1.11 32.71 317 -1.4980277566388 3.7464853469328 57.932410608051 673.62836024995
116	431327 10428 237 176459 1.11 32.71 317 -1.4539402688536 2.5 43.017005871154 422.03918807821
115	441755 7003 237 176459 1.11 32.71 317 36.55 36.55 11586.35 423481.0925
114	448758 10142 237 176459 1.11 32.71 317 65.664088821411 512.37086611403 91403.015699046 31580902.124788
113	458900 10142 237 176459 1.11 32.71 317 12.618280574832 18.140537341355 4482.4537920008 63712.301909356
111	469042 10997 237 176459 1.11 32.71 317 -0.034429564717909 0.64019004683328 9.9136295434511 4.0397645372857
110	480039 10123 237 176459 1.11 32.71 317 4.9774898037654 6.0042645735336 1597.269812473 8055.646277884
112	490162 5735 237 176459 1.11 32.71 317 5 5 1585 7925
124	495897 12879 1242 176351 1.287402260872 32.687397350683 315 0.099998627898 0.100011662332 31.500006750268 3.1500013550465
123	508776 12928 988 176654 1.241823020706 32.741816762549 316 0.09999862713 0.100011662497 31.5999924023 3.1599984853208
122	521704 8817 1242 176351 1.287402260872 32.687397350683 315 5 5 1575 7875
121	530521 8854 988 176654 1.241823020706 32.741816762549 316 5 5 1580 7900
120	539375 470 5239 172549 2 32 31 0 0 0 0
119	539845 657 5239 172549 2 32 31 0.023625 0.02625 0.811125 0.021230015625
118	540502 470 5239 172549 2 32 31 5 5 155 775
139	540972 10513 238 176460 1.11 32.71 317 -1.4889617684878 2.6363455326994 36.625447101768 554.1204546064
138	551485 10555 238 176460 1.11 32.71 317 -1.4484613546822 2.3522320170068 33.158275398561 383.53979218229
137	562040 7003 238 176460 1.11 32.71 317 36.55 36.55 11586.35 423481.0925
136	569043 10135 238 176460 1.11 32.71 317 56.664088821411 501.89196198082 88534.677648569 29946592.241367
135	579178 10130 238 176460 1.11 32.71 317 12.62492469951 17.171408280602 4467.3227415411 63233.272678935
133	589308 11030 238 176460 1.11 32.71 317 -0.018955475404908 0.95747717839373 14.70088040105 9.9902695923303
132	600338 10128 238 176460 1.11 32.71 317 4.9898917587916 6.4595215519948 1600.0354294673 8089.1491688237
134	610466 5735 238 176460 1.11 32.71 317 6 6 1902 11412
146	616201 12879 1106 176215 1.266712050727 32.666707170018 315 0.099998630124 0.1000116625 31.499993779748 3.1499987608085
145	629080 12923 994 176660 1.241823050727 32.741816797601 316 0.099998627452 0.100011662499 31.599992407331 3.159998486327
144	642003 8825 1106 176215 1.266712050727 32.666707170018 315 6 6 1890 11340
143	650828 8846 994 176660 1.241823050727 32.741816797601 316 6 6 1896 11376
142	659674 470 5240 172550 2 32 31 0 0 0 0
141	660144 657 5240 172550 2 32 31 0.023625 0.02625 0.811125 0.021230015625
140	660801 470 5240 172550 2 32 31 6 6 186 1116
161	661271 10517 239 176461 1.11 32.71 317 -1.4963534205583 2.0918617803515 26.715202645056 523.81131658938
160	671788 10554 239 176461 1.11 32.71 317 -1.4517793346167 1.9792578244752 24.41438976955 356.04009265303
159	682342 7003 239 176461 1.11 32.71 317 36.55 36.55 11586.35 423481.0925
158	689345 10139 239 176461 1.11 32.71 317 47.664088821411 491.79897475289 85671.936555452 28369334.369756
157	699484 10130 239 176461 1.11 32.71 317 12.617742512835 16.309002914795 4456.0889221993 62887.896848894
155	709614 10993 239 176461 1.11 32.71 317 -0.031900534117684 0.85454215857539 10.90223658777 6.5403710261566
154	720607 10116 239 176461 1.11 32.71 317 4.9775604260814 6.075739120613 1594.5164167304 8026.3763325902
156	730723 5735 239 176461 1.11 32.71 317 7 7 2219 15533
168	736458 12881 1308 176411 1.289466320914 32.68947441912 315 0.099998631111 0.100011662511 31.500006758663 3.150001356725
167	749339 12920 1000 176666 1.241823080747 32.741816831355 316 0.09999862774 0.100011662501 31.599992411065 3.1599984870738
166	762259 8815 1308 176411 1.289466320914 32.68947441912 315 7 7 2205 15435
165	771074 8843 1000 176666 1.241823080747 32.741816831355 316 7 7 2212 15484
164	779917 470 5241 172551 2 32 31 0 0 0 0
163	780387 657 5241 172551 2 32 31 0.023625 0.02625 0.811125 0.021230015625
162	781044 470 5241 172551 2 32 31 7 7 217 1519
88	781514 9824 236 176668 1.11 32.75 318 0 5.0545017016237 1538.9838859369 7603.526996961
89	791338 10732 236 176668 1.11 32.75 318 -3.7329421458276 0.025327723644361 -53.898426281449 134.83481322277
90	802070 5436 236 176668 1.11 32.75 318 4 4 1272 5088
91	807506 9842 236 176668 1.11 32.75 318 12.61486507218 18.877154837854 4511.7445684788 64400.929064623
92	817348 9858 236 176668 1.11 32.75 318 74.664088821411 523.14304338087 94791.636827332 33537970.72319
93	827206 6708 236 176668 1.11 32.75 318 36.55 36.55 11622.9 424816.995
94	833914 10120 236 176668 1.11 32.75 318 -1.460697948616 2.5 51.858038729325 451.10107292427
95	844034 10191 236 176668 1.11 32.75 318 -1.4920639073632 5.9154514242987 105.10160571396 1017.0727748759
96	854225 439 5238 172548 2 32 31 4 4 124 496
97	854664 626 5238 172548 2 32 31 0.023625 0.02625 0.811125 0.021230015625
98	855290 439 5238 172548 2 32 31 0 0 0 0
99	855729 8538 982 176648 1.241822990685 32.741816729066 316 4 4 1264 5056
100	864267 8847 904 176564 1.240525810561 32.740532548266 316 4 4 1264 5056
101	873114 12944 982 176648 1.241822990685 32.741816729066 316 0.099998626911 0.100011662493 31.599992398838 3.1599984846284
102	886058 12921 904 176564 1.240525810561 32.740532548266 316 0.099998626909 0.100011662399 31.600005398162 3.1600010846271
