file 911589 1512142057                                          
version 2
run SinusoidalSpeedInjectionAttack-142-20171201-16:27:20-75652
attr CACCSpacing 5
attr attackAcc -30
attr attackPos 7
attr attackSpeed 50
attr attackStart 30
attr attacker 3
attr beaconInterval 0.1
attr configname SinusoidalSpeedInjectionAttack
attr controller 1
attr datetime 20171201-16:27:20
attr experiment SinusoidalSpeedInjectionAttack
attr fakeAcc "(3 == 4)"
attr fakePos "(3 == 2)"
attr fakeSpeed "(3 == 3)"
attr inifile omnetpp_142.ini
attr iterationvars "$attacker=3, $attackSpeed=50, $attackPos=7, $attackAcc=-30, $leaderSpeed=100, $controller=1, $CACCSpacing=5, $sController=\"CACC\", $attackStart=30, $0=5, $1=0, $nCars=8, $platoonSize=8, $nLanes=1, $beaconInterval=0.1, $priority=2, $packetSize=200, $ploegH=0.5, $leaderHeadway=1.2, $fakeSpeed=(3 == 3), $fakeAcc=(3 == 4), $fakePos=(3 == 2)"
attr iterationvarsf attacker=3,attackSpeed=50,attackPos=7,attackAcc=-30,leaderSpeed=100,controller=1,CACCSpacing=5,sController=CACC,attackStart=30,5,0,nCars=8,platoonSize=8,nLanes=1,beaconInterval=0.1,priority=2,packetSize=200,ploegH=0.5,leaderHeadway=1.2,fakeSpeed=(3_==_3),fakeAcc=(3_==_4),fakePos=(3_==_2)-
attr leaderHeadway 1.2
attr leaderSpeed 100
attr measurement "$attacker=3, $attackSpeed=50, $attackPos=7, $attackAcc=-30, $leaderSpeed=100, $controller=1, $CACCSpacing=5, $sController=\"CACC\", $attackStart=30, $0=5, $1=0, $nCars=8, $platoonSize=8, $nLanes=1, $beaconInterval=0.1, $priority=2, $packetSize=200, $ploegH=0.5, $leaderHeadway=1.2, $fakeSpeed=(3 == 3), $fakeAcc=(3 == 4), $fakePos=(3 == 2)"
attr nCars 8
attr nLanes 1
attr network scenario
attr packetSize 200
attr platoonSize 8
attr ploegH 0.5
attr priority 2
attr processid 75652
attr repetition 2
attr replication #2
attr resultdir results
attr runnumber 142
attr sController "\"CACC\""
attr seedset 2
param **.coreDebug false
param **.debug false
param **.headway 0.1s
param **.numberOfCars 8
param **.numberOfCarsPerPlatoon 8
param **.numberOfLanes 1
param **.numericController 1
param **.traffic.nCars 8
param **.traffic.nLanes 1
param **.traffic.platoonInsertDistance 5m
param **.traffic.platoonInsertHeadway 0s
param **.traffic.platoonInsertSpeed 100kmph
param **.traffic.platoonInsertTime "1 s"
param **.traffic.platoonLeaderHeadway 1.2s
param **.traffic.platoonSize 8
param **.traffic.platooningVType "\"vtypeauto\""
param **.traffic_type "\"PlatoonsTrafficManager\""
param *.**.nic.mac1609_4.bitrate 6Mbps
param *.**.nic.mac1609_4.txPower 100mW
param *.**.nic.mac1609_4.useServiceChannel false
param *.**.nic.phy80211p.analogueModels "xmldoc(\"config.xml\")"
param *.**.nic.phy80211p.decider "xmldoc(\"config.xml\")"
param *.**.nic.phy80211p.maxTXPower 100mW
param *.**.nic.phy80211p.sensitivity -94dBm
param *.**.nic.phy80211p.thermalNoise -95dBm
param *.**.nic.phy80211p.usePropagationDelay true
param *.**.nic.phy80211p.useThermalNoise true
param *.annotations.draw false
param *.connectionManager.alpha 2.0
param *.connectionManager.carrierFrequency "5.890e9 Hz"
param *.connectionManager.pMax 100mW
param *.connectionManager.sat -94dBm
param *.connectionManager.sendDirect true
param *.manager.autoShutdown true
param *.manager.commandLine "\"sumo --remote-port $port --seed $seed --configuration-file $configFile\""
param *.manager.configFile "\"./sumocfg/freeway.sumo.cfg\""
param *.manager.host "\"localhost\""
param *.manager.margin 25
param *.manager.moduleDisplayString "\"\""
param *.manager.moduleName "\"node\""
param *.manager.moduleType "\"Car\""
param *.manager.updateInterval 0.01s
param *.node[*].appl.attackStart 30s
param *.node[*].appl.attackerType 3
param *.node[*].appl.simulationDuration "60 s"
param *.node[*].appl_type "\"SimplePlatooningApp\""
param *.node[*].helper.nCars 8
param *.node[*].helper.nLanes 1
param *.node[*].helper.platoonSize 8
param *.node[*].helper_type "\"PositionHelper\""
param *.node[*].mobility.x 0
param *.node[*].mobility.y 0
param *.node[*].mobility.z 1.895
param *.node[*].prot.attackStart 30s
param *.node[*].prot.attackerType 3
param *.node[*].prot.attackingNode 3
param *.node[*].prot.beaconingInterval 0.1s
param *.node[*].prot.fakeAcc "(3 == 4)"
param *.node[*].prot.fakePos "(3 == 2)"
param *.node[*].prot.fakeSpeed "(3 == 3)"
param *.node[*].prot.maliciousAcc "-30 mpss"
param *.node[*].prot.maliciousSpeed 50kmph
param *.node[*].prot.packetSize 200
param *.node[*].prot.priority 2
param *.node[*].prot.shiftX "7 m"
param *.node[*].prot.useControllerAcceleration true
param *.node[*].protocol_type "\"SimplePlatooningBeaconing\""
param *.node[*].scenario.accHeadway 0.1s
param *.node[*].scenario.caccC1 0.5
param *.node[*].scenario.caccOmegaN "0.2 Hz"
param *.node[*].scenario.caccSpacing 5m
param *.node[*].scenario.caccXi 1
param *.node[*].scenario.controller "\"CACC\""
param *.node[*].scenario.engineTau "0.5 s"
param *.node[*].scenario.leaderHeadway 1.2s
param *.node[*].scenario.leaderSpeed 100kmph
param *.node[*].scenario.ploegH 0.5s
param *.node[*].scenario.ploegKd 0.7
param *.node[*].scenario.ploegKp 0.2
param *.node[*].scenario.useRealisticEngine false
param *.node[*].scenario_type "\"SinusoidalScenario\""
param *.node[*].unicast.packetLossRate 0
param *.obstacles.debug false
param *.playgroundSizeX 65000m
param *.playgroundSizeY 25000m
param *.playgroundSizeZ 50m
param *.world.use2D false
param *.world.useTorus false

vector 0  scenario.node[0].appl  distance  ETV
vector 1  scenario.node[0].appl  relativeSpeed  ETV
vector 2  scenario.node[0].appl  nodeId  ETV
vector 6  scenario.node[0].appl  acceleration  ETV
vector 7  scenario.node[0].appl  controllerAcceleration  ETV
vector 3  scenario.node[0].appl  speed  ETV
vector 4  scenario.node[0].appl  posx  ETV
vector 5  scenario.node[0].appl  posy  ETV
vector 22  scenario.node[1].appl  distance  ETV
vector 23  scenario.node[1].appl  relativeSpeed  ETV
vector 24  scenario.node[1].appl  nodeId  ETV
vector 28  scenario.node[1].appl  acceleration  ETV
vector 29  scenario.node[1].appl  controllerAcceleration  ETV
vector 25  scenario.node[1].appl  speed  ETV
vector 26  scenario.node[1].appl  posx  ETV
vector 27  scenario.node[1].appl  posy  ETV
vector 44  scenario.node[2].appl  distance  ETV
vector 45  scenario.node[2].appl  relativeSpeed  ETV
vector 46  scenario.node[2].appl  nodeId  ETV
vector 50  scenario.node[2].appl  acceleration  ETV
vector 51  scenario.node[2].appl  controllerAcceleration  ETV
vector 47  scenario.node[2].appl  speed  ETV
vector 48  scenario.node[2].appl  posx  ETV
vector 49  scenario.node[2].appl  posy  ETV
vector 66  scenario.node[3].appl  distance  ETV
vector 67  scenario.node[3].appl  relativeSpeed  ETV
vector 68  scenario.node[3].appl  nodeId  ETV
vector 72  scenario.node[3].appl  acceleration  ETV
vector 73  scenario.node[3].appl  controllerAcceleration  ETV
vector 69  scenario.node[3].appl  speed  ETV
vector 70  scenario.node[3].appl  posx  ETV
vector 71  scenario.node[3].appl  posy  ETV
vector 88  scenario.node[4].appl  distance  ETV
vector 89  scenario.node[4].appl  relativeSpeed  ETV
vector 90  scenario.node[4].appl  nodeId  ETV
vector 94  scenario.node[4].appl  acceleration  ETV
vector 95  scenario.node[4].appl  controllerAcceleration  ETV
vector 91  scenario.node[4].appl  speed  ETV
vector 92  scenario.node[4].appl  posx  ETV
vector 93  scenario.node[4].appl  posy  ETV
vector 110  scenario.node[5].appl  distance  ETV
vector 111  scenario.node[5].appl  relativeSpeed  ETV
vector 112  scenario.node[5].appl  nodeId  ETV
vector 116  scenario.node[5].appl  acceleration  ETV
vector 117  scenario.node[5].appl  controllerAcceleration  ETV
vector 113  scenario.node[5].appl  speed  ETV
vector 114  scenario.node[5].appl  posx  ETV
vector 115  scenario.node[5].appl  posy  ETV
vector 132  scenario.node[6].appl  distance  ETV
vector 133  scenario.node[6].appl  relativeSpeed  ETV
vector 134  scenario.node[6].appl  nodeId  ETV
vector 138  scenario.node[6].appl  acceleration  ETV
vector 139  scenario.node[6].appl  controllerAcceleration  ETV
vector 135  scenario.node[6].appl  speed  ETV
vector 136  scenario.node[6].appl  posx  ETV
vector 137  scenario.node[6].appl  posy  ETV
vector 154  scenario.node[7].appl  distance  ETV
vector 155  scenario.node[7].appl  relativeSpeed  ETV
vector 156  scenario.node[7].appl  nodeId  ETV
vector 160  scenario.node[7].appl  acceleration  ETV
vector 161  scenario.node[7].appl  controllerAcceleration  ETV
vector 157  scenario.node[7].appl  speed  ETV
vector 158  scenario.node[7].appl  posx  ETV
vector 159  scenario.node[7].appl  posy  ETV
vector 168  scenario.node[7].prot  frontDelay  ETV
vector 166  scenario.node[7].prot  frontDelayId  ETV
vector 146  scenario.node[6].prot  frontDelay  ETV
vector 144  scenario.node[6].prot  frontDelayId  ETV
vector 35  scenario.node[1].prot  leaderDelay  ETV
vector 33  scenario.node[1].prot  leaderDelayId  ETV
vector 36  scenario.node[1].prot  frontDelay  ETV
vector 34  scenario.node[1].prot  frontDelayId  ETV
vector 57  scenario.node[2].prot  leaderDelay  ETV
vector 55  scenario.node[2].prot  leaderDelayId  ETV
vector 79  scenario.node[3].prot  leaderDelay  ETV
vector 77  scenario.node[3].prot  leaderDelayId  ETV
vector 101  scenario.node[4].prot  leaderDelay  ETV
vector 99  scenario.node[4].prot  leaderDelayId  ETV
vector 123  scenario.node[5].prot  leaderDelay  ETV
vector 121  scenario.node[5].prot  leaderDelayId  ETV
vector 145  scenario.node[6].prot  leaderDelay  ETV
vector 143  scenario.node[6].prot  leaderDelayId  ETV
vector 167  scenario.node[7].prot  leaderDelay  ETV
vector 165  scenario.node[7].prot  leaderDelayId  ETV
vector 102  scenario.node[4].prot  frontDelay  ETV
vector 100  scenario.node[4].prot  frontDelayId  ETV
vector 80  scenario.node[3].prot  frontDelay  ETV
vector 78  scenario.node[3].prot  frontDelayId  ETV
vector 124  scenario.node[5].prot  frontDelay  ETV
vector 122  scenario.node[5].prot  frontDelayId  ETV
vector 58  scenario.node[2].prot  frontDelay  ETV
vector 56  scenario.node[2].prot  frontDelayId  ETV
vector 8  scenario.node[0].prot  nodeId  ETV
vector 9  scenario.node[0].prot  busyTime  ETV
vector 10  scenario.node[0].prot  collisions  ETV
vector 30  scenario.node[1].prot  nodeId  ETV
vector 31  scenario.node[1].prot  busyTime  ETV
vector 32  scenario.node[1].prot  collisions  ETV
vector 52  scenario.node[2].prot  nodeId  ETV
vector 53  scenario.node[2].prot  busyTime  ETV
vector 54  scenario.node[2].prot  collisions  ETV
vector 74  scenario.node[3].prot  nodeId  ETV
vector 75  scenario.node[3].prot  busyTime  ETV
vector 76  scenario.node[3].prot  collisions  ETV
vector 96  scenario.node[4].prot  nodeId  ETV
vector 97  scenario.node[4].prot  busyTime  ETV
vector 98  scenario.node[4].prot  collisions  ETV
vector 118  scenario.node[5].prot  nodeId  ETV
vector 119  scenario.node[5].prot  busyTime  ETV
vector 120  scenario.node[5].prot  collisions  ETV
vector 140  scenario.node[6].prot  nodeId  ETV
vector 141  scenario.node[6].prot  busyTime  ETV
vector 142  scenario.node[6].prot  collisions  ETV
vector 162  scenario.node[7].prot  nodeId  ETV
vector 163  scenario.node[7].prot  busyTime  ETV
vector 164  scenario.node[7].prot  collisions  ETV
7	11083 7652 232 178690 1.11 33.11 321 -1.5 1.5 4.7460186867345 507.30984025099
6	18735 10074 232 178690 1.11 33.11 321 -1.4722746794938 1.451340770512 9.8556982105411 337.70395676464
5	28809 6453 232 178690 1.11 33.11 321 36.55 36.55 11732.55 428824.7025
4	35262 9631 232 178690 1.11 33.11 321 100.67108077976 994.08863538443 175987.59093208 117933587.13468
3	44893 9628 232 178690 1.11 33.11 321 26.488037261118 29.742492528104 8962.3054253003 250465.47554807
1	54521 5169 232 178690 1.11 33.11 321 0 0 0 0
0	59690 5490 232 178690 1.11 33.11 321 -1 -1 -321 321
2	65180 5169 232 178690 1.11 33.11 321 0 0 0 0
10	70349 453 5168 178056 2 33 32 0 0 0 0
9	70802 614 5168 178056 2 33 32 0.023297 0.02625 0.837047 0.021903687709
8	71416 421 5168 178056 2 33 32 0 0 0 0
29	71837 10315 233 178691 1.11 33.11 321 -1.523393431168 1.5241491852394 5.9307317880279 512.95921894871
28	82152 10374 233 178691 1.11 33.11 321 -1.4872877338334 1.4632119881718 10.576336373399 340.85606159263
27	92526 6774 233 178691 1.11 33.11 321 36.55 36.55 11732.55 428824.7025
26	99300 9941 233 178691 1.11 33.11 321 91.671076965332 985.01776801767 173095.51540351 114789231.19211
25	109241 9943 233 178691 1.11 33.11 321 26.480495449638 29.747905211783 8961.6218155355 250429.8202817
23	119184 10870 233 178691 1.11 33.11 321 -0.085370874489843 0.085492720331722 0.58505278270376 1.2252081621118
22	130054 9945 233 178691 1.11 33.11 321 4.9094714772849 5.1291569272015 1608.0618563693 8056.797121043
24	139999 5490 233 178691 1.11 33.11 321 1 1 321 321
36	145489 12762 1034 178936 1.262216930646 33.16221951873 320 0.099998659109 0.100011732137 32.000001248542 3.2000002547108
35	158251 12762 1034 178936 1.262216930646 33.16221951873 320 0.099998659109 0.100011732137 32.000001248542 3.2000002547108
34	171013 8635 1034 178936 1.262216930646 33.16221951873 320 1 1 320 320
33	179648 8635 1034 178936 1.262216930646 33.16221951873 320 1 1 320 320
32	188283 453 5169 178057 2 33 32 0 0 0 0
31	188736 646 5169 178057 2 33 32 0.023296 0.02625 0.837046 0.021903641116
30	189382 453 5169 178057 2 33 32 1 1 32 32
51	189835 10291 234 178692 1.11 33.11 321 -1.4963007061426 1.4967154530627 6.436649955905 491.90743899498
50	200126 10346 234 178692 1.11 33.11 321 -1.4778825511858 1.4526090797784 10.700881958438 337.46392504058
49	210472 6774 234 178692 1.11 33.11 321 36.55 36.55 11732.55 428824.7025
48	217246 9945 234 178692 1.11 33.11 321 82.671076965332 975.99450654697 170205.14525018 111698548.30698
47	227191 9955 234 178692 1.11 33.11 321 26.486728987222 29.742197225852 8961.393015049 250414.5181999
45	237146 10935 234 178692 1.11 33.11 321 -0.01940609115637 0.017598484001979 0.12303712282121 0.034746125113928
44	248081 9945 234 178692 1.11 33.11 321 4.9758459057372 5.0458892399179 1606.365577324 8038.7609892752
46	258026 5490 234 178692 1.11 33.11 321 2 2 642 1284
58	263516 12748 1312 178652 1.302609200833 33.102600116382 319 0.099998659095 0.100011706668 31.900002576007 3.1900005202009
57	276264 12763 1040 178942 1.262216960667 33.162219548826 320 0.099998659109 0.100011732136 32.000001248617 3.2000002547258
56	289027 8630 1312 178652 1.302609200833 33.102600116382 319 2 2 638 1276
55	297657 8641 1040 178942 1.262216960667 33.162219548826 320 2 2 640 1280
54	306298 453 5170 178058 2 33 32 0 0 0 0
53	306751 646 5170 178058 2 33 32 0.023297 0.02625 0.837047 0.021903687709
52	307397 453 5170 178058 2 33 32 2 2 64 128
73	307850 10325 235 178693 1.11 33.11 321 -1.5144504202722 1.515444167014 6.2410003538529 502.78352158779
72	318175 10373 235 178693 1.11 33.11 321 -1.4663369050815 1.4406243148336 10.718364810078 331.43152436563
71	328548 6774 235 178693 1.11 33.11 321 36.55 36.55 11732.55 428824.7025
70	335322 9940 235 178693 1.11 33.11 321 73.671076965332 966.97677729942 167314.81909484 108660093.01335
69	345262 9956 235 178693 1.11 33.11 321 26.498340218155 29.729722568859 8961.2164286454 250400.69118055
67	355218 11004 235 178693 1.11 33.11 321 -0.015760221557269 0.014948748977439 0.069577583953151 0.019757632957318
66	366222 9935 235 178693 1.11 33.11 321 4.9816113590248 5.0406527211558 1606.3226236115 8038.2971197537
68	376157 5490 235 178693 1.11 33.11 321 3 3 963 2889
80	381647 12731 1176 178515 1.287873050729 33.087876895938 319 0.099998659098 0.100011707381 31.900002505667 3.1900005061331
79	394378 12778 1046 178948 1.262216990687 33.162219578906 320 0.099998659105 0.100011732137 32.000001248677 3.2000002547378
78	407156 8617 1176 178515 1.287873050729 33.087876895938 319 3 3 957 2871
77	415773 8642 1046 178948 1.262216990687 33.162219578906 320 3 3 960 2880
76	424415 453 5171 178059 2 33 32 0 0 0 0
75	424868 646 5171 178059 2 33 32 0.023297 0.02625 0.837047 0.021903687709
74	425514 453 5171 178059 2 33 32 3 3 96 288
95	425967 10353 236 178694 1.11 33.11 321 -3.0877473553185 1.5032357080987 -75.557015201846 568.22286523087
94	436320 10391 236 178694 1.11 33.11 321 -2.5164058754665 1.4309616964194 -61.598134060307 378.96593027456
93	446711 6774 236 178694 1.11 33.11 321 36.55 36.55 11732.55 428824.7025
92	453485 9952 236 178694 1.11 33.11 321 64.671076965332 947.28664941259 164317.62366146 105473646.7671
91	463437 9942 236 178694 1.11 33.11 321 21.734343386026 29.716962134681 8851.7980994286 244724.60638813
89	473379 10903 236 178694 1.11 33.11 321 -0.013273962256008 7.1601885354923 109.31114556871 552.51503160178
88	484282 9939 236 178694 1.11 33.11 321 4.9908448578595 15.547081468271 1711.0070667959 9775.9509476036
90	494221 5490 236 178694 1.11 33.11 321 4 4 1284 5136
102	499711 13070 1108 179016 1.276579020708 33.176581646033 320 0.099998659103 0.100011709294 32.000001285783 3.2000002621579
101	512781 13063 1052 178954 1.262217020708 33.16221964579 320 0.099998659103 0.100011734411 32.00000128554 3.2000002621104
100	525844 8950 1108 179016 1.276579020708 33.176581646033 320 4 4 1280 5120
99	534794 8624 1052 178954 1.262217020708 33.16221964579 320 4 4 1280 5120
98	543418 453 5172 178060 2 33 32 0 0 0 0
97	543871 646 5172 178060 2 33 32 0.023297 0.02625 0.837047 0.021903687709
96	544517 453 5172 178060 2 33 32 4 4 128 512
139	544970 10657 238 178696 1.11 33.11 321 -2.5320430762693 1.495835768114 -23.894186508165 480.61560832052
138	555627 10722 238 178696 1.11 33.11 321 -1.8120728583746 1.4357065185848 -14.577851053772 312.16583373383
137	566349 7095 238 178696 1.11 33.11 321 36.55 36.55 11732.55 428824.7025
136	573444 10264 238 178696 1.11 33.11 321 46.671078872681 936.8070668428 158615.03903717 99802444.455455
135	583708 10268 238 178696 1.11 33.11 321 26.404821984296 29.721657035874 8928.6418621293 248594.21180912
133	593976 11367 238 178696 1.11 33.11 321 -1.7788882451815 0.011156227949815 -27.408737393037 34.544146200232
132	605343 10255 238 178696 1.11 33.11 321 2.3257140491254 5.0279109057233 1579.2444728148 7812.3127940106
134	615598 5811 238 178696 1.11 33.11 321 6 6 1926 11556
146	621409 13093 970 178872 1.247594780542 33.147597338769 320 0.099998659092 0.100011715088 32.000001218685 3.2000002487387
145	634502 13071 1064 178966 1.26221708075 33.162219679962 320 0.099998659106 0.100011732901 32.00000125967 3.2000002569364
144	647573 8957 970 178872 1.247594780542 33.147597338769 320 6 6 1920 11520
143	656530 8954 1064 178966 1.26221708075 33.162219679962 320 6 6 1920 11520
142	665484 485 5174 178062 2 33 32 0 0 0 0
141	665969 678 5174 178062 2 33 32 0.023297 0.02625 0.837047 0.021903687709
140	666647 485 5174 178062 2 33 32 6 6 192 1152
161	667132 10656 239 178697 1.11 33.11 321 -2.2128632989708 1.4867112355309 -10.812517908635 468.76663508113
160	677788 10717 239 178697 1.11 33.11 321 -1.463905875999 1.4301187314359 -3.6367713114529 312.97503571864
159	688505 7095 239 178697 1.11 33.11 321 36.55 36.55 11732.55 428824.7025
158	695600 10280 239 178697 1.11 33.11 321 37.671077919006 929.30131377125 155739.38202975 96998756.939826
157	705880 10277 239 178697 1.11 33.11 321 26.508618227925 29.715544865818 8943.9638253109 249427.60746237
155	716157 11391 239 178697 1.11 33.11 321 -1.0574977331746 0.0095544638576186 -15.176184671028 11.094981258981
154	727548 10256 239 178697 1.11 33.11 321 3.5272654407902 5.0149087741407 1591.9634466814 7907.584589414
156	737804 5811 239 178697 1.11 33.11 321 7 7 2247 15729
168	743615 13084 832 178734 1.212136690479 33.11212627205 320 0.09999865909 0.100011698265 31.999988242029 3.1999976532726
167	756699 13088 1070 178972 1.26221711077 33.162219704817 320 0.099998659102 0.100011732565 32.000001254505 3.2000002559034
166	769787 8959 832 178734 1.212136690479 33.11212627205 320 7 7 2240 15680
165	778746 8957 1070 178972 1.26221711077 33.162219704817 320 7 7 2240 15680
164	787703 485 5175 178063 2 33 32 0 0 0 0
163	788188 678 5175 178063 2 33 32 0.023297 0.02625 0.837047 0.021903687709
162	788866 485 5175 178063 2 33 32 7 7 224 1568
110	789351 10298 237 179042 1.11 33.18 322 0 5.0245318815316 1556.8770267306 7692.9995537832
111	799649 11166 237 179042 1.11 33.18 322 -2.8653834888511 0.032962817415665 -51.357122486935 113.32539317844
112	810815 5830 237 179042 1.11 33.18 322 5 5 1610 8050
113	816645 10305 237 179042 1.11 33.18 322 24.445609653231 29.71821086177 8925.3514294205 247734.70391181
114	826950 10298 237 179042 1.11 33.18 322 55.671078872681 944.81113916761 162422.53992831 103526273.42628
115	837248 7118 237 179042 1.11 33.18 322 36.55 36.55 11769.1 430160.605
116	844366 10775 237 179042 1.11 33.18 322 -2.2930989069561 1.4330842524103 -35.023595806689 326.65119830716
117	855141 10722 237 179042 1.11 33.18 322 -2.8866239595955 1.5107019123028 -48.294280633911 513.34279307663
118	865863 485 5173 178061 2 33 32 5 5 160 800
119	866348 678 5173 178061 2 33 32 0.023297 0.02625 0.837047 0.021903687709
120	867026 485 5173 178061 2 33 32 0 0 0 0
121	867511 8974 1058 178960 1.262217050729 33.162219659285 320 5 5 1600 8000
122	876485 8944 1244 178583 1.297503110771 33.097506975069 319 5 5 1595 7975
123	885429 13107 1058 178960 1.262217050729 33.162219659285 320 0.099998659103 0.100011733475 32.000001269014 3.2000002588052
124	898536 13053 1244 178583 1.297503110771 33.097506975069 319 0.0999986591 0.100011713148 31.900002524756 3.1900005099511
