file 1683715 1501692880                                         
version 2
run SinusoidalSpeedInjectionAttack-19-20170802-18:54:10-50856
attr CACCSpacing 20
attr attackAcc -30
attr attackPos 7
attr attackSpeed -50
attr attackStart 30
attr attacker 3
attr beaconInterval 0.1
attr configname SinusoidalSpeedInjectionAttack
attr controller 3
attr datetime 20170802-18:54:10
attr experiment SinusoidalSpeedInjectionAttack
attr fakeAcc "(3 == 4)"
attr fakePos "(3 == 2)"
attr fakeSpeed "(3 == 3)"
attr inifile omnetpp_19.ini
attr iterationvars "$attacker=3, $attackSpeed=-50, $attackPos=7, $attackAcc=-30, $leaderSpeed=50, $controller=3, $CACCSpacing=20, $sController=\"CONSENSUS\", $attackStart=30, $0=15, $1=0.8, $nCars=8, $platoonSize=8, $nLanes=1, $beaconInterval=0.1, $priority=2, $packetSize=200, $ploegH=0.5, $leaderHeadway=1.2, $fakeSpeed=(3 == 3), $fakeAcc=(3 == 4), $fakePos=(3 == 2)"
attr iterationvarsf attacker=3,attackSpeed=-50,attackPos=7,attackAcc=-30,leaderSpeed=50,controller=3,CACCSpacing=20,sController=CONSENSUS,attackStart=30,15,0.8,nCars=8,platoonSize=8,nLanes=1,beaconInterval=0.1,priority=2,packetSize=200,ploegH=0.5,leaderHeadway=1.2,fakeSpeed=(3_==_3),fakeAcc=(3_==_4),fakePos=(3_==_2)-
attr leaderHeadway 1.2
attr leaderSpeed 50
attr measurement "$attacker=3, $attackSpeed=-50, $attackPos=7, $attackAcc=-30, $leaderSpeed=50, $controller=3, $CACCSpacing=20, $sController=\"CONSENSUS\", $attackStart=30, $0=15, $1=0.8, $nCars=8, $platoonSize=8, $nLanes=1, $beaconInterval=0.1, $priority=2, $packetSize=200, $ploegH=0.5, $leaderHeadway=1.2, $fakeSpeed=(3 == 3), $fakeAcc=(3 == 4), $fakePos=(3 == 2)"
attr nCars 8
attr nLanes 1
attr network scenario
attr packetSize 200
attr platoonSize 8
attr ploegH 0.5
attr priority 2
attr processid 50856
attr repetition 4
attr replication #4
attr resultdir results
attr runnumber 19
attr sController "\"CONSENSUS\""
attr seedset 4
param **.coreDebug false
param **.debug false
param **.headway 0.1s
param **.numberOfCars 8
param **.numberOfCarsPerPlatoon 8
param **.numberOfLanes 1
param **.numericController 3
param **.traffic.nCars 8
param **.traffic.nLanes 1
param **.traffic.platoonInsertDistance 15m
param **.traffic.platoonInsertHeadway 0.8s
param **.traffic.platoonInsertSpeed 50kmph
param **.traffic.platoonInsertTime "1 s"
param **.traffic.platoonLeaderHeadway 1.2s
param **.traffic.platoonSize 8
param **.traffic.platooningVType "\"vtypeauto\""
param **.traffic_type "\"PlatoonsTrafficManager\""
param *.**.nic.mac1609_4.bitrate 6Mbps
param *.**.nic.mac1609_4.txPower 100mW
param *.**.nic.mac1609_4.useServiceChannel false
param *.**.nic.phy80211p.analogueModels "xmldoc(\"config.xml\")"
param *.**.nic.phy80211p.decider "xmldoc(\"config.xml\")"
param *.**.nic.phy80211p.maxTXPower 100mW
param *.**.nic.phy80211p.sensitivity -94dBm
param *.**.nic.phy80211p.thermalNoise -95dBm
param *.**.nic.phy80211p.usePropagationDelay true
param *.**.nic.phy80211p.useThermalNoise true
param *.annotations.draw false
param *.connectionManager.alpha 2.0
param *.connectionManager.carrierFrequency "5.890e9 Hz"
param *.connectionManager.pMax 100mW
param *.connectionManager.sat -94dBm
param *.connectionManager.sendDirect true
param *.manager.autoShutdown true
param *.manager.commandLine "\"sumo --remote-port $port --seed $seed --configuration-file $configFile\""
param *.manager.configFile "\"./sumocfg/freeway.sumo.cfg\""
param *.manager.host "\"localhost\""
param *.manager.margin 25
param *.manager.moduleDisplayString "\"\""
param *.manager.moduleName "\"node\""
param *.manager.moduleType "\"Car\""
param *.manager.updateInterval 0.01s
param *.node[*].appl.attackStart 30s
param *.node[*].appl.attackerType 3
param *.node[*].appl.simulationDuration "60 s"
param *.node[*].appl_type "\"SimplePlatooningApp\""
param *.node[*].helper.nCars 8
param *.node[*].helper.nLanes 1
param *.node[*].helper.platoonSize 8
param *.node[*].helper_type "\"PositionHelper\""
param *.node[*].mobility.x 0
param *.node[*].mobility.y 0
param *.node[*].mobility.z 1.895
param *.node[*].prot.attackStart 30s
param *.node[*].prot.attackerType 3
param *.node[*].prot.attackingNode 3
param *.node[*].prot.beaconingInterval 0.1s
param *.node[*].prot.fakeAcc "(3 == 4)"
param *.node[*].prot.fakePos "(3 == 2)"
param *.node[*].prot.fakeSpeed "(3 == 3)"
param *.node[*].prot.maliciousAcc "-30 mpss"
param *.node[*].prot.maliciousSpeed -50kmph
param *.node[*].prot.packetSize 200
param *.node[*].prot.priority 2
param *.node[*].prot.shiftX "7 m"
param *.node[*].prot.useControllerAcceleration true
param *.node[*].protocol_type "\"SimplePlatooningBeaconing\""
param *.node[*].scenario.accHeadway 0.1s
param *.node[*].scenario.caccC1 0.5
param *.node[*].scenario.caccOmegaN "0.2 Hz"
param *.node[*].scenario.caccSpacing 20m
param *.node[*].scenario.caccXi 1
param *.node[*].scenario.controller "\"CONSENSUS\""
param *.node[*].scenario.engineTau "0.5 s"
param *.node[*].scenario.leaderHeadway 1.2s
param *.node[*].scenario.leaderOscillationFrequency "0.2 Hz"
param *.node[*].scenario.leaderSpeed 50kmph
param *.node[*].scenario.oscillationAmplitude "10 kmph"
param *.node[*].scenario.ploegH 0.5s
param *.node[*].scenario.ploegKd 0.7
param *.node[*].scenario.ploegKp 0.2
param *.node[*].scenario.startOscillating "5 s"
param *.node[*].scenario.useRealisticEngine false
param *.node[*].scenario_type "\"SinusoidalScenario\""
param *.node[*].unicast.packetLossRate 0
param *.obstacles.debug false
param *.playgroundSizeX 65000m
param *.playgroundSizeY 25000m
param *.playgroundSizeZ 50m
param *.world.use2D false
param *.world.useTorus false

vector 0  scenario.node[0].appl  distance  ETV
vector 1  scenario.node[0].appl  relativeSpeed  ETV
vector 2  scenario.node[0].appl  nodeId  ETV
vector 6  scenario.node[0].appl  acceleration  ETV
vector 7  scenario.node[0].appl  controllerAcceleration  ETV
vector 3  scenario.node[0].appl  speed  ETV
vector 4  scenario.node[0].appl  posx  ETV
vector 5  scenario.node[0].appl  posy  ETV
vector 22  scenario.node[1].appl  distance  ETV
vector 23  scenario.node[1].appl  relativeSpeed  ETV
vector 24  scenario.node[1].appl  nodeId  ETV
vector 28  scenario.node[1].appl  acceleration  ETV
vector 29  scenario.node[1].appl  controllerAcceleration  ETV
vector 25  scenario.node[1].appl  speed  ETV
vector 26  scenario.node[1].appl  posx  ETV
vector 27  scenario.node[1].appl  posy  ETV
vector 44  scenario.node[2].appl  distance  ETV
vector 45  scenario.node[2].appl  relativeSpeed  ETV
vector 46  scenario.node[2].appl  nodeId  ETV
vector 50  scenario.node[2].appl  acceleration  ETV
vector 51  scenario.node[2].appl  controllerAcceleration  ETV
vector 47  scenario.node[2].appl  speed  ETV
vector 48  scenario.node[2].appl  posx  ETV
vector 49  scenario.node[2].appl  posy  ETV
vector 66  scenario.node[3].appl  distance  ETV
vector 67  scenario.node[3].appl  relativeSpeed  ETV
vector 68  scenario.node[3].appl  nodeId  ETV
vector 72  scenario.node[3].appl  acceleration  ETV
vector 73  scenario.node[3].appl  controllerAcceleration  ETV
vector 69  scenario.node[3].appl  speed  ETV
vector 70  scenario.node[3].appl  posx  ETV
vector 71  scenario.node[3].appl  posy  ETV
vector 88  scenario.node[4].appl  distance  ETV
vector 89  scenario.node[4].appl  relativeSpeed  ETV
vector 90  scenario.node[4].appl  nodeId  ETV
vector 94  scenario.node[4].appl  acceleration  ETV
vector 95  scenario.node[4].appl  controllerAcceleration  ETV
vector 91  scenario.node[4].appl  speed  ETV
vector 92  scenario.node[4].appl  posx  ETV
vector 93  scenario.node[4].appl  posy  ETV
vector 110  scenario.node[5].appl  distance  ETV
vector 111  scenario.node[5].appl  relativeSpeed  ETV
vector 112  scenario.node[5].appl  nodeId  ETV
vector 116  scenario.node[5].appl  acceleration  ETV
vector 117  scenario.node[5].appl  controllerAcceleration  ETV
vector 113  scenario.node[5].appl  speed  ETV
vector 114  scenario.node[5].appl  posx  ETV
vector 115  scenario.node[5].appl  posy  ETV
vector 132  scenario.node[6].appl  distance  ETV
vector 133  scenario.node[6].appl  relativeSpeed  ETV
vector 134  scenario.node[6].appl  nodeId  ETV
vector 138  scenario.node[6].appl  acceleration  ETV
vector 139  scenario.node[6].appl  controllerAcceleration  ETV
vector 135  scenario.node[6].appl  speed  ETV
vector 136  scenario.node[6].appl  posx  ETV
vector 137  scenario.node[6].appl  posy  ETV
vector 154  scenario.node[7].appl  distance  ETV
vector 155  scenario.node[7].appl  relativeSpeed  ETV
vector 156  scenario.node[7].appl  nodeId  ETV
vector 160  scenario.node[7].appl  acceleration  ETV
vector 161  scenario.node[7].appl  controllerAcceleration  ETV
vector 157  scenario.node[7].appl  speed  ETV
vector 158  scenario.node[7].appl  posx  ETV
vector 159  scenario.node[7].appl  posy  ETV
vector 102  scenario.node[4].prot  frontDelay  ETV
vector 100  scenario.node[4].prot  frontDelayId  ETV
vector 35  scenario.node[1].prot  leaderDelay  ETV
vector 33  scenario.node[1].prot  leaderDelayId  ETV
vector 36  scenario.node[1].prot  frontDelay  ETV
vector 34  scenario.node[1].prot  frontDelayId  ETV
vector 57  scenario.node[2].prot  leaderDelay  ETV
vector 55  scenario.node[2].prot  leaderDelayId  ETV
vector 79  scenario.node[3].prot  leaderDelay  ETV
vector 77  scenario.node[3].prot  leaderDelayId  ETV
vector 101  scenario.node[4].prot  leaderDelay  ETV
vector 99  scenario.node[4].prot  leaderDelayId  ETV
vector 123  scenario.node[5].prot  leaderDelay  ETV
vector 121  scenario.node[5].prot  leaderDelayId  ETV
vector 145  scenario.node[6].prot  leaderDelay  ETV
vector 143  scenario.node[6].prot  leaderDelayId  ETV
vector 167  scenario.node[7].prot  leaderDelay  ETV
vector 165  scenario.node[7].prot  leaderDelayId  ETV
vector 80  scenario.node[3].prot  frontDelay  ETV
vector 78  scenario.node[3].prot  frontDelayId  ETV
vector 146  scenario.node[6].prot  frontDelay  ETV
vector 144  scenario.node[6].prot  frontDelayId  ETV
vector 58  scenario.node[2].prot  frontDelay  ETV
vector 56  scenario.node[2].prot  frontDelayId  ETV
vector 124  scenario.node[5].prot  frontDelay  ETV
vector 122  scenario.node[5].prot  frontDelayId  ETV
vector 168  scenario.node[7].prot  frontDelay  ETV
vector 166  scenario.node[7].prot  frontDelayId  ETV
vector 8  scenario.node[0].prot  nodeId  ETV
vector 9  scenario.node[0].prot  busyTime  ETV
vector 10  scenario.node[0].prot  collisions  ETV
vector 30  scenario.node[1].prot  nodeId  ETV
vector 31  scenario.node[1].prot  busyTime  ETV
vector 32  scenario.node[1].prot  collisions  ETV
vector 52  scenario.node[2].prot  nodeId  ETV
vector 53  scenario.node[2].prot  busyTime  ETV
vector 54  scenario.node[2].prot  collisions  ETV
vector 74  scenario.node[3].prot  nodeId  ETV
vector 75  scenario.node[3].prot  busyTime  ETV
vector 76  scenario.node[3].prot  collisions  ETV
vector 96  scenario.node[4].prot  nodeId  ETV
vector 97  scenario.node[4].prot  busyTime  ETV
vector 98  scenario.node[4].prot  collisions  ETV
vector 118  scenario.node[5].prot  nodeId  ETV
vector 119  scenario.node[5].prot  busyTime  ETV
vector 120  scenario.node[5].prot  collisions  ETV
vector 140  scenario.node[6].prot  nodeId  ETV
vector 141  scenario.node[6].prot  busyTime  ETV
vector 142  scenario.node[6].prot  collisions  ETV
vector 162  scenario.node[7].prot  nodeId  ETV
vector 163  scenario.node[7].prot  busyTime  ETV
vector 164  scenario.node[7].prot  collisions  ETV
7	11286 13860 232 328174 1.11 59.91 589 -1.5 1.5 -14.445969899918 993.24092361736
6	25146 18587 232 328174 1.11 59.91 589 -1.472274679513 1.4513434175798 -12.507264912644 675.29835211523
5	43733 12081 232 328174 1.11 59.91 589 36.55 36.55 21527.95 786846.5725
4	55814 17917 232 328174 1.11 59.91 589 258.44186744677 1079.4246659447 394821.46306366 297707047.91023
3	73731 17901 232 328174 1.11 59.91 589 12.599076970844 15.853603639796 8223.2832500118 115251.79065057
1	91632 9725 232 328174 1.11 59.91 589 0 0 0 0
0	101357 10314 232 328174 1.11 59.91 589 -1 -1 -589 589
2	111671 9725 232 328174 1.11 59.91 589 0 0 0 0
10	121396 859 5234 328728 2 60 59 0 0 0 0
9	122255 1155 5234 328728 2 60 59 0.023625 0.02625 1.546125 0.040523765625
8	123410 800 5234 328728 2 60 59 0 0 0 0
29	124210 19119 233 328175 1.11 59.91 589 -1.9530783888987 1.9468631285547 -11.779773656281 1127.1085081538
28	143329 19176 233 328175 1.11 59.91 589 -1.7217025705456 1.712690523865 -3.43931760895 803.94053957557
27	162505 12670 233 328175 1.11 59.91 589 36.55 36.55 21527.95 786846.5725
26	175175 18498 233 328175 1.11 59.91 589 228.33075294495 1050.0695311161 377048.86639551 274431753.27501
25	193673 18487 233 328175 1.11 59.91 589 12.497979477332 15.844541375 8231.1692238745 115560.17584112
23	212160 19311 233 328175 1.11 59.91 589 -1.2227053188028 1.2115403792334 -7.7609012136189 439.92028653728
22	231471 18490 233 328175 1.11 59.91 589 25.065696959745 27.565955015401 15416.754387635 403818.51121017
24	249961 10314 233 328175 1.11 59.91 589 1 1 589 589
36	260275 23683 964 328350 1.241825013197 59.94182047485 588 0.09998720528 0.100000226073 58.799995671331 5.8799991359275
35	283958 23683 964 328350 1.241825013197 59.94182047485 588 0.09998720528 0.100000226073 58.799995671331 5.8799991359275
34	307641 16107 964 328350 1.241825013197 59.94182047485 588 1 1 588 588
33	323748 16107 964 328350 1.241825013197 59.94182047485 588 1 1 588 588
32	339855 859 5235 328729 2 60 59 0 0 0 0
31	340714 1214 5235 328729 2 60 59 0.023625 0.02625 1.546125 0.040523765625
30	341928 859 5235 328729 2 60 59 1 1 59 59
51	342787 19215 234 328176 1.11 59.91 589 -1.4194130171797 1.4081436595585 -8.9717914930267 614.16059839895
50	362002 19261 234 328176 1.11 59.91 589 -1.2931901571596 1.2701327566264 -2.941071764894 450.88810256853
49	381263 12670 234 328176 1.11 59.91 589 36.55 36.55 21527.95 786846.5725
48	393933 18481 234 328176 1.11 59.91 589 198.21963844299 1019.6765683428 359281.06539711 252234964.29795
47	412414 18506 234 328176 1.11 59.91 589 12.851399139138 15.512276708495 8228.3648161125 115252.88413879
45	430920 19611 234 328176 1.11 59.91 589 -0.38763643254658 0.36033547690197 2.8388009380904 34.032183736184
44	450531 18504 234 328176 1.11 59.91 589 25.828106794095 26.763580805644 15411.744910244 403291.13850166
46	469035 10314 234 328176 1.11 59.91 589 2 2 1178 2356
58	479349 23714 1176 328562 1.281934917156 59.981930381719 588 0.099987205109 0.10000022641 58.799995674241 5.8799991365096
57	503063 23710 970 328356 1.241825113637 59.941820576226 588 0.099987205161 0.100000226175 58.799995672267 5.8799991361147
56	526773 16117 1176 328562 1.281934917156 59.981930381719 588 2 2 1176 2352
55	542890 16114 970 328356 1.241825113637 59.941820576226 588 2 2 1176 2352
54	559004 859 5236 328730 2 60 59 0 0 0 0
53	559863 1214 5236 328730 2 60 59 0.023625 0.02625 1.546125 0.040523765625
52	561077 859 5236 328730 2 60 59 2 2 118 236
73	561936 19153 235 328177 1.11 59.91 589 -1.4974843941923 1.4894836749921 -9.8215581130193 675.43490768854
72	581089 19242 235 328177 1.11 59.91 589 -1.3293510392169 1.3189437020241 -3.5309958848577 487.26070988459
71	600331 12670 235 328177 1.11 59.91 589 36.55 36.55 21527.95 786846.5725
70	613001 18485 235 328177 1.11 59.91 589 168.10853919983 989.58902121942 341514.01775207 231108742.15099
69	631486 18508 235 328177 1.11 59.91 589 12.804725524396 15.454333650969 8228.5799461875 115278.76149003
67	649994 20066 235 328177 1.11 59.91 589 -0.099670779975924 0.12238329716474 -0.18571935734085 1.6883101384554
66	670060 18490 235 328177 1.11 59.91 589 26.059560230842 26.431721870054 15411.051947637 403231.85494238
68	688550 10314 235 328177 1.11 59.91 589 3 3 1767 5301
80	698864 23710 1040 328420 1.262752214077 59.962760676597 588 0.099987206732 0.100000226157 58.800008672198 5.8800017359373
79	722574 23697 976 328362 1.241825214077 59.941820676593 588 0.099987205174 0.100000226156 58.799995672194 5.8799991361001
78	746271 16116 1040 328420 1.262752214077 59.962760676597 588 3 3 1764 5292
77	762387 16114 976 328362 1.241825214077 59.941820676593 588 3 3 1764 5292
76	778501 859 5237 328731 2 60 59 0 0 0 0
75	779360 1214 5237 328731 2 60 59 0.023625 0.02625 1.546125 0.040523765625
74	780574 859 5237 328731 2 60 59 3 3 177 531
95	781433 19181 236 328178 1.11 59.91 589 -1.4619047942842 1.4568817102906 -9.4490979958567 649.34048315724
94	800614 19292 236 328178 1.11 59.91 589 -1.2921860968216 1.2871348903964 -3.2384844423943 462.91985375723
93	819906 12670 236 328178 1.11 59.91 589 36.55 36.55 21527.95 786846.5725
92	832576 18503 236 328178 1.11 59.91 589 137.99742469788 959.46141741547 323746.40498857 211050449.74937
91	851079 18495 236 328178 1.11 59.91 589 12.833838041812 15.419300635738 8228.425131268 115258.26378428
89	869574 20178 236 328178 1.11 59.91 589 -0.045539518413612 0.052134324025422 0.19012487833831 0.29288767349608
88	889752 18495 236 328178 1.11 59.91 589 26.08317463772 26.341593189902 15411.609667198 403259.06148816
90	908247 10314 236 328178 1.11 59.91 589 4 4 2356 9424
102	918561 24276 904 328290 1.240527711877 59.940536177947 588 0.099987206897 0.10000022651 58.800008675748 5.8800017366473
101	942837 24315 982 328368 1.241825314516 59.941820777085 588 0.099987205166 0.100000226173 58.799995672247 5.8799991361107
100	967152 16715 904 328290 1.240527711877 59.940536177947 588 4 4 2352 9408
99	983867 16121 982 328368 1.241825314516 59.941820777085 588 4 4 2352 9408
98	999988 859 5238 328732 2 60 59 0 0 0 0
97	1000847 1214 5238 328732 2 60 59 0.023625 0.02625 1.546125 0.040523765625
96	1002061 859 5238 328732 2 60 59 4 4 236 944
117	1002920 19797 237 328179 1.11 59.91 589 -1.4031855138749 1.4018124696173 -9.1164869878343 599.40945529606
116	1022717 19878 237 328179 1.11 59.91 589 -1.2577834462073 1.2516997873607 -3.1676926648652 437.79188175301
115	1042595 13259 237 328179 1.11 59.91 589 36.55 36.55 21527.95 786846.5725
114	1055854 19084 237 328179 1.11 59.91 589 107.88631019592 929.32730189541 305978.93878619 192061808.35236
113	1074938 19082 237 328179 1.11 59.91 589 12.863306021047 15.383252302817 8228.1973135017 115235.03172378
111	1094020 20765 237 328179 1.11 59.91 589 -0.045044868589484 0.05341181455462 0.26020261070651 0.32457674524683
110	1114785 19098 237 328179 1.11 59.91 589 26.08836485672 26.309793809388 15411.461646029 403250.38778554
112	1133883 10903 237 328179 1.11 59.91 589 5 5 2945 14725
124	1144786 24279 1242 328628 1.287392218476 59.987400683097 588 0.099987207448 0.100000226426 58.800008674299 5.8800017363574
123	1169065 24281 988 328374 1.241825414956 59.941820877601 588 0.099987205156 0.100000226189 58.799995672323 5.8799991361259
122	1193346 16701 1242 328628 1.287392218476 59.987400683097 588 5 5 2940 14700
121	1210047 16701 988 328374 1.241825414956 59.941820877601 588 5 5 2940 14700
120	1226748 918 5239 328733 2 60 59 0 0 0 0
119	1227666 1273 5239 328733 2 60 59 0.023625 0.02625 1.546125 0.040523765625
118	1228939 918 5239 328733 2 60 59 5 5 295 1475
139	1229857 19776 238 328180 1.11 59.91 589 -1.3783875971104 1.3769027071616 -8.9432434327847 578.66734563431
138	1249633 19872 238 328180 1.11 59.91 589 -1.2266741212443 1.2228461468741 -3.0886076392845 417.55333898013
137	1269505 13259 238 328180 1.11 59.91 589 36.55 36.55 21527.95 786846.5725
136	1282764 19083 238 328180 1.11 59.91 589 77.775199508667 899.19757368494 288211.49883193 174142783.38985
135	1301847 19086 238 328180 1.11 59.91 589 12.887270107005 15.34827924565 8228.0136670074 115216.54934269
133	1320933 20765 238 328180 1.11 59.91 589 -0.03582888175403 0.037547249585367 0.2153234209532 0.21460504857938
132	1341698 19081 238 328180 1.11 59.91 589 26.094010466107 26.27520262977 15411.436281332 403248.39751697
134	1360779 10903 238 328180 1.11 59.91 589 6 6 3534 21204
146	1371682 24286 1106 328486 1.266714515397 59.966709978104 588 0.099987205199 0.1000002262 58.799995672385 5.8799991361383
145	1395968 24278 994 328380 1.241825515396 59.941820978102 588 0.099987205147 0.100000226199 58.799995672384 5.8799991361381
144	1420246 16707 1106 328486 1.266714515397 59.966709978104 588 6 6 3528 21168
143	1436953 16698 994 328380 1.241825515396 59.941820978102 588 6 6 3528 21168
142	1453651 918 5240 328734 2 60 59 0 0 0 0
141	1454569 1273 5240 328734 2 60 59 0.023625 0.02625 1.546125 0.040523765625
140	1455842 918 5240 328734 2 60 59 6 6 354 2124
161	1456760 19797 239 328181 1.11 59.91 589 -1.3359029546602 1.334237385358 -8.6619060277535 542.98173430898
160	1476557 19910 239 328181 1.11 59.91 589 -1.1959395307574 1.1923271419985 -2.9912343238983 396.70178448268
159	1496467 13259 239 328181 1.11 59.91 589 36.55 36.55 21527.95 786846.5725
158	1509726 19090 239 328181 1.11 59.91 589 47.664088821411 869.06514516458 270444.12105585 157293652.1891
157	1528816 19084 239 328181 1.11 59.91 589 12.913845758405 15.312851613207 8227.8036930923 115196.72746882
155	1547900 20762 239 328181 1.11 59.91 589 -0.035152576313411 0.037548500692413 0.24085999156235 0.22079387568646
154	1568662 19073 239 328181 1.11 59.91 589 26.094614939435 26.253602154538 15411.373576603 403244.68421403
156	1587735 10903 239 328181 1.11 59.91 589 7 7 4123 28861
168	1598638 24281 1308 328694 1.289469419356 59.989464884106 588 0.099987205285 0.100000226444 58.799995674428 5.879999136547
167	1622919 24281 1000 328386 1.241825615836 59.941821078612 588 0.099987205139 0.100000226208 58.799995672454 5.8799991361521
166	1647200 16700 1308 328694 1.289469419356 59.989464884106 588 7 7 4116 28812
165	1663900 16706 1000 328386 1.241825615836 59.941821078612 588 7 7 4116 28812
164	1680606 918 5241 328735 2 60 59 0 0 0 0
163	1681524 1273 5241 328735 2 60 59 0.023625 0.02625 1.546125 0.040523765625
162	1682797 918 5241 328735 2 60 59 7 7 413 2891
