file 1679642 1512142114                                         
version 2
run SinusoidalSpeedInjectionAttack-148-20171201-16:28:03-42360
attr CACCSpacing 20
attr attackAcc -30
attr attackPos 7
attr attackSpeed 50
attr attackStart 30
attr attacker 3
attr beaconInterval 0.1
attr configname SinusoidalSpeedInjectionAttack
attr controller 1
attr datetime 20171201-16:28:03
attr experiment SinusoidalSpeedInjectionAttack
attr fakeAcc "(3 == 4)"
attr fakePos "(3 == 2)"
attr fakeSpeed "(3 == 3)"
attr inifile omnetpp_148.ini
attr iterationvars "$attacker=3, $attackSpeed=50, $attackPos=7, $attackAcc=-30, $leaderSpeed=100, $controller=1, $CACCSpacing=20, $sController=\"CACC\", $attackStart=30, $0=20, $1=0, $nCars=8, $platoonSize=8, $nLanes=1, $beaconInterval=0.1, $priority=2, $packetSize=200, $ploegH=0.5, $leaderHeadway=1.2, $fakeSpeed=(3 == 3), $fakeAcc=(3 == 4), $fakePos=(3 == 2)"
attr iterationvarsf attacker=3,attackSpeed=50,attackPos=7,attackAcc=-30,leaderSpeed=100,controller=1,CACCSpacing=20,sController=CACC,attackStart=30,20,0,nCars=8,platoonSize=8,nLanes=1,beaconInterval=0.1,priority=2,packetSize=200,ploegH=0.5,leaderHeadway=1.2,fakeSpeed=(3_==_3),fakeAcc=(3_==_4),fakePos=(3_==_2)-
attr leaderHeadway 1.2
attr leaderSpeed 100
attr measurement "$attacker=3, $attackSpeed=50, $attackPos=7, $attackAcc=-30, $leaderSpeed=100, $controller=1, $CACCSpacing=20, $sController=\"CACC\", $attackStart=30, $0=20, $1=0, $nCars=8, $platoonSize=8, $nLanes=1, $beaconInterval=0.1, $priority=2, $packetSize=200, $ploegH=0.5, $leaderHeadway=1.2, $fakeSpeed=(3 == 3), $fakeAcc=(3 == 4), $fakePos=(3 == 2)"
attr nCars 8
attr nLanes 1
attr network scenario
attr packetSize 200
attr platoonSize 8
attr ploegH 0.5
attr priority 2
attr processid 42360
attr repetition 3
attr replication #3
attr resultdir results
attr runnumber 148
attr sController "\"CACC\""
attr seedset 3
param **.coreDebug false
param **.debug false
param **.headway 0.1s
param **.numberOfCars 8
param **.numberOfCarsPerPlatoon 8
param **.numberOfLanes 1
param **.numericController 1
param **.traffic.nCars 8
param **.traffic.nLanes 1
param **.traffic.platoonInsertDistance 20m
param **.traffic.platoonInsertHeadway 0s
param **.traffic.platoonInsertSpeed 100kmph
param **.traffic.platoonInsertTime "1 s"
param **.traffic.platoonLeaderHeadway 1.2s
param **.traffic.platoonSize 8
param **.traffic.platooningVType "\"vtypeauto\""
param **.traffic_type "\"PlatoonsTrafficManager\""
param *.**.nic.mac1609_4.bitrate 6Mbps
param *.**.nic.mac1609_4.txPower 100mW
param *.**.nic.mac1609_4.useServiceChannel false
param *.**.nic.phy80211p.analogueModels "xmldoc(\"config.xml\")"
param *.**.nic.phy80211p.decider "xmldoc(\"config.xml\")"
param *.**.nic.phy80211p.maxTXPower 100mW
param *.**.nic.phy80211p.sensitivity -94dBm
param *.**.nic.phy80211p.thermalNoise -95dBm
param *.**.nic.phy80211p.usePropagationDelay true
param *.**.nic.phy80211p.useThermalNoise true
param *.annotations.draw false
param *.connectionManager.alpha 2.0
param *.connectionManager.carrierFrequency "5.890e9 Hz"
param *.connectionManager.pMax 100mW
param *.connectionManager.sat -94dBm
param *.connectionManager.sendDirect true
param *.manager.autoShutdown true
param *.manager.commandLine "\"sumo --remote-port $port --seed $seed --configuration-file $configFile\""
param *.manager.configFile "\"./sumocfg/freeway.sumo.cfg\""
param *.manager.host "\"localhost\""
param *.manager.margin 25
param *.manager.moduleDisplayString "\"\""
param *.manager.moduleName "\"node\""
param *.manager.moduleType "\"Car\""
param *.manager.updateInterval 0.01s
param *.node[*].appl.attackStart 30s
param *.node[*].appl.attackerType 3
param *.node[*].appl.simulationDuration "60 s"
param *.node[*].appl_type "\"SimplePlatooningApp\""
param *.node[*].helper.nCars 8
param *.node[*].helper.nLanes 1
param *.node[*].helper.platoonSize 8
param *.node[*].helper_type "\"PositionHelper\""
param *.node[*].mobility.x 0
param *.node[*].mobility.y 0
param *.node[*].mobility.z 1.895
param *.node[*].prot.attackStart 30s
param *.node[*].prot.attackerType 3
param *.node[*].prot.attackingNode 3
param *.node[*].prot.beaconingInterval 0.1s
param *.node[*].prot.fakeAcc "(3 == 4)"
param *.node[*].prot.fakePos "(3 == 2)"
param *.node[*].prot.fakeSpeed "(3 == 3)"
param *.node[*].prot.maliciousAcc "-30 mpss"
param *.node[*].prot.maliciousSpeed 50kmph
param *.node[*].prot.packetSize 200
param *.node[*].prot.priority 2
param *.node[*].prot.shiftX "7 m"
param *.node[*].prot.useControllerAcceleration true
param *.node[*].protocol_type "\"SimplePlatooningBeaconing\""
param *.node[*].scenario.accHeadway 0.1s
param *.node[*].scenario.caccC1 0.5
param *.node[*].scenario.caccOmegaN "0.2 Hz"
param *.node[*].scenario.caccSpacing 20m
param *.node[*].scenario.caccXi 1
param *.node[*].scenario.controller "\"CACC\""
param *.node[*].scenario.engineTau "0.5 s"
param *.node[*].scenario.leaderHeadway 1.2s
param *.node[*].scenario.leaderSpeed 100kmph
param *.node[*].scenario.ploegH 0.5s
param *.node[*].scenario.ploegKd 0.7
param *.node[*].scenario.ploegKp 0.2
param *.node[*].scenario.useRealisticEngine false
param *.node[*].scenario_type "\"SinusoidalScenario\""
param *.node[*].unicast.packetLossRate 0
param *.obstacles.debug false
param *.playgroundSizeX 65000m
param *.playgroundSizeY 25000m
param *.playgroundSizeZ 50m
param *.world.use2D false
param *.world.useTorus false

vector 0  scenario.node[0].appl  distance  ETV
vector 1  scenario.node[0].appl  relativeSpeed  ETV
vector 2  scenario.node[0].appl  nodeId  ETV
vector 6  scenario.node[0].appl  acceleration  ETV
vector 7  scenario.node[0].appl  controllerAcceleration  ETV
vector 3  scenario.node[0].appl  speed  ETV
vector 4  scenario.node[0].appl  posx  ETV
vector 5  scenario.node[0].appl  posy  ETV
vector 22  scenario.node[1].appl  distance  ETV
vector 23  scenario.node[1].appl  relativeSpeed  ETV
vector 24  scenario.node[1].appl  nodeId  ETV
vector 28  scenario.node[1].appl  acceleration  ETV
vector 29  scenario.node[1].appl  controllerAcceleration  ETV
vector 25  scenario.node[1].appl  speed  ETV
vector 26  scenario.node[1].appl  posx  ETV
vector 27  scenario.node[1].appl  posy  ETV
vector 44  scenario.node[2].appl  distance  ETV
vector 45  scenario.node[2].appl  relativeSpeed  ETV
vector 46  scenario.node[2].appl  nodeId  ETV
vector 50  scenario.node[2].appl  acceleration  ETV
vector 51  scenario.node[2].appl  controllerAcceleration  ETV
vector 47  scenario.node[2].appl  speed  ETV
vector 48  scenario.node[2].appl  posx  ETV
vector 49  scenario.node[2].appl  posy  ETV
vector 66  scenario.node[3].appl  distance  ETV
vector 67  scenario.node[3].appl  relativeSpeed  ETV
vector 68  scenario.node[3].appl  nodeId  ETV
vector 72  scenario.node[3].appl  acceleration  ETV
vector 73  scenario.node[3].appl  controllerAcceleration  ETV
vector 69  scenario.node[3].appl  speed  ETV
vector 70  scenario.node[3].appl  posx  ETV
vector 71  scenario.node[3].appl  posy  ETV
vector 88  scenario.node[4].appl  distance  ETV
vector 89  scenario.node[4].appl  relativeSpeed  ETV
vector 90  scenario.node[4].appl  nodeId  ETV
vector 94  scenario.node[4].appl  acceleration  ETV
vector 95  scenario.node[4].appl  controllerAcceleration  ETV
vector 91  scenario.node[4].appl  speed  ETV
vector 92  scenario.node[4].appl  posx  ETV
vector 93  scenario.node[4].appl  posy  ETV
vector 110  scenario.node[5].appl  distance  ETV
vector 111  scenario.node[5].appl  relativeSpeed  ETV
vector 112  scenario.node[5].appl  nodeId  ETV
vector 116  scenario.node[5].appl  acceleration  ETV
vector 117  scenario.node[5].appl  controllerAcceleration  ETV
vector 113  scenario.node[5].appl  speed  ETV
vector 114  scenario.node[5].appl  posx  ETV
vector 115  scenario.node[5].appl  posy  ETV
vector 132  scenario.node[6].appl  distance  ETV
vector 133  scenario.node[6].appl  relativeSpeed  ETV
vector 134  scenario.node[6].appl  nodeId  ETV
vector 138  scenario.node[6].appl  acceleration  ETV
vector 139  scenario.node[6].appl  controllerAcceleration  ETV
vector 135  scenario.node[6].appl  speed  ETV
vector 136  scenario.node[6].appl  posx  ETV
vector 137  scenario.node[6].appl  posy  ETV
vector 154  scenario.node[7].appl  distance  ETV
vector 155  scenario.node[7].appl  relativeSpeed  ETV
vector 156  scenario.node[7].appl  nodeId  ETV
vector 160  scenario.node[7].appl  acceleration  ETV
vector 161  scenario.node[7].appl  controllerAcceleration  ETV
vector 157  scenario.node[7].appl  speed  ETV
vector 158  scenario.node[7].appl  posx  ETV
vector 159  scenario.node[7].appl  posy  ETV
vector 35  scenario.node[1].prot  leaderDelay  ETV
vector 33  scenario.node[1].prot  leaderDelayId  ETV
vector 36  scenario.node[1].prot  frontDelay  ETV
vector 34  scenario.node[1].prot  frontDelayId  ETV
vector 57  scenario.node[2].prot  leaderDelay  ETV
vector 55  scenario.node[2].prot  leaderDelayId  ETV
vector 79  scenario.node[3].prot  leaderDelay  ETV
vector 77  scenario.node[3].prot  leaderDelayId  ETV
vector 101  scenario.node[4].prot  leaderDelay  ETV
vector 99  scenario.node[4].prot  leaderDelayId  ETV
vector 123  scenario.node[5].prot  leaderDelay  ETV
vector 121  scenario.node[5].prot  leaderDelayId  ETV
vector 145  scenario.node[6].prot  leaderDelay  ETV
vector 143  scenario.node[6].prot  leaderDelayId  ETV
vector 167  scenario.node[7].prot  leaderDelay  ETV
vector 165  scenario.node[7].prot  leaderDelayId  ETV
vector 168  scenario.node[7].prot  frontDelay  ETV
vector 166  scenario.node[7].prot  frontDelayId  ETV
vector 58  scenario.node[2].prot  frontDelay  ETV
vector 56  scenario.node[2].prot  frontDelayId  ETV
vector 124  scenario.node[5].prot  frontDelay  ETV
vector 122  scenario.node[5].prot  frontDelayId  ETV
vector 80  scenario.node[3].prot  frontDelay  ETV
vector 78  scenario.node[3].prot  frontDelayId  ETV
vector 146  scenario.node[6].prot  frontDelay  ETV
vector 144  scenario.node[6].prot  frontDelayId  ETV
vector 102  scenario.node[4].prot  frontDelay  ETV
vector 100  scenario.node[4].prot  frontDelayId  ETV
vector 8  scenario.node[0].prot  nodeId  ETV
vector 9  scenario.node[0].prot  busyTime  ETV
vector 10  scenario.node[0].prot  collisions  ETV
vector 30  scenario.node[1].prot  nodeId  ETV
vector 31  scenario.node[1].prot  busyTime  ETV
vector 32  scenario.node[1].prot  collisions  ETV
vector 52  scenario.node[2].prot  nodeId  ETV
vector 53  scenario.node[2].prot  busyTime  ETV
vector 54  scenario.node[2].prot  collisions  ETV
vector 74  scenario.node[3].prot  nodeId  ETV
vector 75  scenario.node[3].prot  busyTime  ETV
vector 76  scenario.node[3].prot  collisions  ETV
vector 96  scenario.node[4].prot  nodeId  ETV
vector 97  scenario.node[4].prot  busyTime  ETV
vector 98  scenario.node[4].prot  collisions  ETV
vector 118  scenario.node[5].prot  nodeId  ETV
vector 119  scenario.node[5].prot  busyTime  ETV
vector 120  scenario.node[5].prot  collisions  ETV
vector 140  scenario.node[6].prot  nodeId  ETV
vector 141  scenario.node[6].prot  busyTime  ETV
vector 142  scenario.node[6].prot  collisions  ETV
vector 162  scenario.node[7].prot  nodeId  ETV
vector 163  scenario.node[7].prot  busyTime  ETV
vector 164  scenario.node[7].prot  collisions  ETV
7	11092 13860 232 328174 1.11 59.91 589 -1.5 1.5 -14.445974034379 993.24092368185
6	24952 18594 232 328174 1.11 59.91 589 -1.4722746794938 1.4513434175793 -12.50726914995 675.29835222675
5	43546 12081 232 328174 1.11 59.91 589 36.55 36.55 21527.95 786846.5725
4	55627 17921 232 328174 1.11 59.91 589 210.1237403867 1847.7732059291 606870.41977949 757073017.98182
3	73548 17905 232 328174 1.11 59.91 589 26.487965859734 29.742492528104 16403.83880962 457295.15275867
1	91453 9725 232 328174 1.11 59.91 589 0 0 0 0
0	101178 10314 232 328174 1.11 59.91 589 -1 -1 -589 589
2	111492 9725 232 328174 1.11 59.91 589 0 0 0 0
10	121217 858 5056 328550 2 60 59 0 0 0 0
9	122075 1556 5056 328550 2 60 59 0.022755747372 0.026262189362 1.545258599889 0.040483600182456
8	123631 799 5056 328550 2 60 59 0 0 0 0
29	124430 17091 233 328175 1.11 59.91 589 -1.5201885305329 1.5215379202346 -16.621674185581 995.58727585757
28	141521 19173 233 328175 1.11 59.91 589 -1.4845166976844 1.4492363479558 -12.160484493321 675.58506012385
27	160694 12670 233 328175 1.11 59.91 589 36.55 36.55 21527.95 786846.5725
26	173364 18503 233 328175 1.11 59.91 589 186.12374038696 1823.718689474 592677.43018533 728144009.97347
25	191867 18505 233 328175 1.11 59.91 589 26.48258984786 29.73823345156 16403.309238542 457265.69208542
23	210372 20104 233 328175 1.11 59.91 589 -0.085666453974444 0.09234661028168 0.65464376923376 2.4329174921465
22	230476 18509 233 328175 1.11 59.91 589 19.942679175015 20.230457319092 11836.979002739 237887.94077277
24	248985 10314 233 328175 1.11 59.91 589 1 1 589 589
36	259299 23676 836 328222 1.269559161495 59.969555505938 588 0.099987080745 0.100002157496 58.799996425883 5.8799992900411
35	282975 23676 836 328222 1.269559161495 59.969555505938 588 0.099987080745 0.100002157496 58.799996425883 5.8799992900411
34	306651 16124 836 328222 1.269559161495 59.969555505938 588 1 1 588 588
33	322775 16124 836 328222 1.269559161495 59.969555505938 588 1 1 588 588
32	338899 858 5057 328551 2 60 59 0 0 0 0
31	339757 1613 5057 328551 2 60 59 0.022755827428 0.026262189695 1.545258680116 0.040483603834898
30	341370 858 5057 328551 2 60 59 1 1 59 59
51	342228 16926 234 328176 1.11 59.91 589 -1.5268714797433 1.5218527223985 -17.317403538713 996.91294511836
50	359154 19212 234 328176 1.11 59.91 589 -1.4757144530289 1.4406976854907 -11.958325661864 669.52166393141
49	378366 12670 234 328176 1.11 59.91 589 36.55 36.55 21527.95 786846.5725
48	391036 18502 234 328176 1.11 59.91 589 162.12374038696 1799.668266186 578516.28870081 699974146.43172
47	409538 18484 234 328176 1.11 59.91 589 26.486567370713 29.731244925024 16402.810619082 457233.59198981
45	428022 20599 234 328176 1.11 59.91 589 -0.0098541922603808 0.013218816456234 0.62022430506676 0.019279111717616
44	448621 18489 234 328176 1.11 59.91 589 19.996915730618 20.081402683001 11805.131512136 236606.675136
46	467110 10314 234 328176 1.11 59.91 589 2 2 1178 2356
58	477424 23675 1046 328426 1.299191202215 59.999188202786 588 0.099987083066 0.100002159328 58.799997082011 5.8799994212806
57	501099 23650 842 328228 1.269559241551 59.969555586159 588 0.099987080748 0.10000215749 58.799996426048 5.8799992900741
56	524749 16126 1046 328426 1.299191202215 59.999188202786 588 2 2 1176 2352
55	540875 16112 842 328228 1.269559241551 59.969555586159 588 2 2 1176 2352
54	556987 858 5058 328552 2 60 59 0 0 0 0
53	557845 1614 5058 328552 2 60 59 0.022755907483 0.026262189765 1.545258760336 0.040483607487001
52	559459 858 5058 328552 2 60 59 2 2 118 236
73	560317 19029 235 328177 1.11 59.91 589 -1.4873962137024 1.4906490651251 -15.470227343503 941.16499599315
72	579346 19153 235 328177 1.11 59.91 589 -1.462903729573 1.4324081195152 -11.647621772741 659.58246819119
71	598499 12670 235 328177 1.11 59.91 589 36.55 36.55 21527.95 786846.5725
70	611169 18497 235 328177 1.11 59.91 589 138.12373275757 1775.7071547955 564388.21030798 672562067.63337
69	629666 18476 235 328177 1.11 59.91 589 26.497257204844 29.722404727259 16403.210300697 457249.46486811
67	648142 20140 235 328177 1.11 59.91 589 -0.037916123784164 0.029305426055323 -0.28009835907558 0.23648667304416
66	668282 18487 235 328177 1.11 59.91 589 19.934505806172 20.063152462656 11772.086386459 235284.02212579
68	686769 10314 235 328177 1.11 59.91 589 3 3 1767 5301
80	697083 23670 1180 328569 1.300212602492 60.000210319582 588 0.099987080261 0.100002159325 58.79999779853 5.8799995645926
79	720753 23671 848 328234 1.269559321606 59.969555666079 588 0.099987080752 0.100002157477 58.799996425913 5.8799992900471
78	744424 16131 1180 328569 1.300212602492 60.000210319582 588 3 3 1764 5292
77	760555 16122 848 328234 1.269559321606 59.969555666079 588 3 3 1764 5292
76	776677 858 5059 328553 2 60 59 0 0 0 0
75	777535 1617 5059 328553 2 60 59 0.022754827428 0.026262189643 1.545257680418 0.040483558340101
74	779152 858 5059 328553 2 60 59 3 3 177 531
95	780010 17837 236 328178 1.11 59.91 589 -2.9188528360173 1.5 -11.763739297728 952.69771291203
94	797847 19179 236 328178 1.11 59.91 589 -2.4655042629547 1.4866774113418 -11.965042082302 708.30750109798
93	817026 12670 236 328178 1.11 59.91 589 36.55 36.55 21527.95 786846.5725
92	829696 18488 236 328178 1.11 59.91 589 114.12373275757 1644.2446913732 528043.2462665 583625471.45467
91	848184 18502 236 328178 1.11 59.91 589 18.058511892326 29.71189911739 15328.56963949 403957.75607892
89	866686 19632 236 328178 1.11 59.91 589 -0.012670728228461 8.5396433621287 1074.7571374248 6530.9468791911
88	886318 18457 236 328178 1.11 59.91 589 19.97019422231 127.46136953781 33967.47122826 3158705.1072037
90	904775 10314 236 328178 1.11 59.91 589 4 4 2356 9424
102	915089 24254 1312 328719 1.306018002769 60.006068783398 588 0.09990908005 0.100093128938 58.799985862069 5.8799983189388
101	939343 24253 854 328240 1.269559401662 59.969556104598 588 0.099987080753 0.100002157504 58.799996784376 5.8799993617397
100	963596 16708 1312 328719 1.306018002769 60.006068783398 588 4 4 2352 9408
99	980304 16111 854 328240 1.269559401662 59.969556104598 588 4 4 2352 9408
98	996415 858 5060 328554 2 60 59 0 0 0 0
97	997273 1614 5060 328554 2 60 59 0.022755747372 0.026262189601 1.545258241897 0.040483581387757
96	998887 858 5060 328554 2 60 59 4 4 236 944
117	999745 19700 237 328179 1.11 59.91 589 -2.8517717169069 1.7690847671073 -18.124569964201 978.04652726635
116	1019445 19809 237 328179 1.11 59.91 589 -2.4349033292928 1.6809052255919 -15.162509554839 681.85943040364
115	1039254 13259 237 328179 1.11 59.91 589 36.55 36.55 21527.95 786846.5725
114	1052513 19091 237 328179 1.11 59.91 589 90.123736572266 1622.049065621 516518.5471293 564874412.77746
113	1071604 19087 237 328179 1.11 59.91 589 20.175315715358 29.704009596868 15346.50499627 403806.35074295
111	1090691 20239 237 328179 1.11 59.91 589 -2.9534253471844 1.1708177216915 -17.815706358571 456.10976205847
110	1110930 19087 237 328179 1.11 59.91 589 4.0647978995514 20.014445358085 9169.0578443331 161532.8536306
112	1130017 10903 237 328179 1.11 59.91 589 5 5 2945 14725
124	1140920 24244 1112 328492 1.299591442381 59.999601795345 588 0.099987080523 0.100002159436 58.800010434404 5.880002091617
123	1165164 24260 860 328246 1.269559481717 59.969556178686 588 0.099987080751 0.100002157603 58.799996778409 5.8799993605463
122	1189424 16713 1112 328492 1.299591442381 59.999601795345 588 5 5 2940 14700
121	1206137 16701 860 328246 1.269559481717 59.969556178686 588 5 5 2940 14700
120	1222838 917 5061 328555 2 60 59 0 0 0 0
119	1223755 1670 5061 328555 2 60 59 0.022754667317 0.026262189611 1.545257167777 0.040483532545675
118	1225425 917 5061 328555 2 60 59 5 5 295 1475
139	1226342 19654 238 328180 1.11 59.91 589 -2.4959594108933 1.7823578494258 -22.329256062254 953.33656508352
138	1245996 19780 238 328180 1.11 59.91 589 -2.2739709668244 1.7156001799325 -19.511008032851 683.12354951252
137	1265776 13259 238 328180 1.11 59.91 589 36.55 36.55 21527.95 786846.5725
136	1279035 19085 238 328180 1.11 59.91 589 66.123736572266 1601.1022226214 504862.8152146 546501269.19634
135	1298120 19079 238 328180 1.11 59.91 589 20.652823343717 29.71058107327 15376.884215347 404718.83757821
133	1317199 20257 238 328180 1.11 59.91 589 -1.9702188367193 0.85251353448911 -30.227593981239 278.01177505062
132	1337456 19046 238 328180 1.11 59.91 589 6.2276256404266 20.031055657003 9300.3394990841 162253.91219271
134	1356502 10903 238 328180 1.11 59.91 589 6 6 3534 21204
146	1367405 24256 1249 328638 1.305604842658 60.005615902225 588 0.099987081777 0.100002159587 58.800011141007 5.8800022329369
145	1391661 24254 866 328252 1.269559561772 59.96955624863 588 0.099987080748 0.100002157748 58.799996768298 5.8799993585241
144	1415915 16730 1249 328638 1.305604842658 60.005615902225 588 6 6 3528 21168
143	1432645 16696 866 328252 1.269559561772 59.96955624863 588 6 6 3528 21168
142	1449341 917 5062 328556 2 60 59 0 0 0 0
141	1450258 1675 5062 328556 2 60 59 0.022755587261 0.026262189691 1.54525809779 0.040483574941222
140	1451933 917 5062 328556 2 60 59 6 6 354 2124
161	1452850 19560 239 328181 1.11 59.91 589 -2.2479697832773 1.7939256001835 -27.432515354969 994.20810087252
160	1472410 19799 239 328181 1.11 59.91 589 -2.1179398115606 1.7135509172057 -24.29803803873 676.26594342205
159	1492209 13259 239 328181 1.11 59.91 589 36.55 36.55 21527.95 786846.5725
158	1505468 19077 239 328181 1.11 59.91 589 42.123735618591 1581.466745374 493071.35345142 528439298.24217
157	1524545 19094 239 328181 1.11 59.91 589 21.450616139554 29.707520482332 15420.36204231 406571.75073462
155	1543639 20595 239 328181 1.11 59.91 589 -1.4410289209188 0.66909253594588 -43.282716883287 184.43652393686
154	1564234 19090 239 328181 1.11 59.91 589 7.5566249962305 20.018772038188 9436.3313197151 164474.56037493
156	1583324 10903 239 328181 1.11 59.91 589 7 7 4123 28861
168	1594227 24261 980 328360 1.292108801938 59.992105445425 588 0.09998708144 0.100002159246 58.799996724927 5.8799993498774
167	1618488 24239 872 328258 1.269559641828 59.969556314207 588 0.09998708075 0.100002157908 58.799996753819 5.8799993556283
166	1642727 16711 980 328360 1.292108801938 59.992105445425 588 7 7 4116 28812
165	1659438 16699 872 328258 1.269559641828 59.969556314207 588 7 7 4116 28812
164	1676137 917 5063 328557 2 60 59 0 0 0 0
163	1677054 1671 5063 328557 2 60 59 0.022755507206 0.026262189656 1.545258032165 0.040483572055425
162	1678725 917 5063 328557 2 60 59 7 7 413 2891
