file 909265 1512141672                                          
version 2
run SinusoidalSpeedInjectionAttack-63-20171201-16:20:56-913
attr CACCSpacing 5
attr attackAcc -30
attr attackPos 7
attr attackSpeed 0
attr attackStart 30
attr attacker 3
attr beaconInterval 0.1
attr configname SinusoidalSpeedInjectionAttack
attr controller 1
attr datetime 20171201-16:20:56
attr experiment SinusoidalSpeedInjectionAttack
attr fakeAcc "(3 == 4)"
attr fakePos "(3 == 2)"
attr fakeSpeed "(3 == 3)"
attr inifile omnetpp_63.ini
attr iterationvars "$attacker=3, $attackSpeed=0, $attackPos=7, $attackAcc=-30, $leaderSpeed=50, $controller=1, $CACCSpacing=5, $sController=\"CACC\", $attackStart=30, $0=5, $1=0, $nCars=8, $platoonSize=8, $nLanes=1, $beaconInterval=0.1, $priority=2, $packetSize=200, $ploegH=0.5, $leaderHeadway=1.2, $fakeSpeed=(3 == 3), $fakeAcc=(3 == 4), $fakePos=(3 == 2)"
attr iterationvarsf attacker=3,attackSpeed=0,attackPos=7,attackAcc=-30,leaderSpeed=50,controller=1,CACCSpacing=5,sController=CACC,attackStart=30,5,0,nCars=8,platoonSize=8,nLanes=1,beaconInterval=0.1,priority=2,packetSize=200,ploegH=0.5,leaderHeadway=1.2,fakeSpeed=(3_==_3),fakeAcc=(3_==_4),fakePos=(3_==_2)-
attr leaderHeadway 1.2
attr leaderSpeed 50
attr measurement "$attacker=3, $attackSpeed=0, $attackPos=7, $attackAcc=-30, $leaderSpeed=50, $controller=1, $CACCSpacing=5, $sController=\"CACC\", $attackStart=30, $0=5, $1=0, $nCars=8, $platoonSize=8, $nLanes=1, $beaconInterval=0.1, $priority=2, $packetSize=200, $ploegH=0.5, $leaderHeadway=1.2, $fakeSpeed=(3 == 3), $fakeAcc=(3 == 4), $fakePos=(3 == 2)"
attr nCars 8
attr nLanes 1
attr network scenario
attr packetSize 200
attr platoonSize 8
attr ploegH 0.5
attr priority 2
attr processid 913
attr repetition 3
attr replication #3
attr resultdir results
attr runnumber 63
attr sController "\"CACC\""
attr seedset 3
param **.coreDebug false
param **.debug false
param **.headway 0.1s
param **.numberOfCars 8
param **.numberOfCarsPerPlatoon 8
param **.numberOfLanes 1
param **.numericController 1
param **.traffic.nCars 8
param **.traffic.nLanes 1
param **.traffic.platoonInsertDistance 5m
param **.traffic.platoonInsertHeadway 0s
param **.traffic.platoonInsertSpeed 50kmph
param **.traffic.platoonInsertTime "1 s"
param **.traffic.platoonLeaderHeadway 1.2s
param **.traffic.platoonSize 8
param **.traffic.platooningVType "\"vtypeauto\""
param **.traffic_type "\"PlatoonsTrafficManager\""
param *.**.nic.mac1609_4.bitrate 6Mbps
param *.**.nic.mac1609_4.txPower 100mW
param *.**.nic.mac1609_4.useServiceChannel false
param *.**.nic.phy80211p.analogueModels "xmldoc(\"config.xml\")"
param *.**.nic.phy80211p.decider "xmldoc(\"config.xml\")"
param *.**.nic.phy80211p.maxTXPower 100mW
param *.**.nic.phy80211p.sensitivity -94dBm
param *.**.nic.phy80211p.thermalNoise -95dBm
param *.**.nic.phy80211p.usePropagationDelay true
param *.**.nic.phy80211p.useThermalNoise true
param *.annotations.draw false
param *.connectionManager.alpha 2.0
param *.connectionManager.carrierFrequency "5.890e9 Hz"
param *.connectionManager.pMax 100mW
param *.connectionManager.sat -94dBm
param *.connectionManager.sendDirect true
param *.manager.autoShutdown true
param *.manager.commandLine "\"sumo --remote-port $port --seed $seed --configuration-file $configFile\""
param *.manager.configFile "\"./sumocfg/freeway.sumo.cfg\""
param *.manager.host "\"localhost\""
param *.manager.margin 25
param *.manager.moduleDisplayString "\"\""
param *.manager.moduleName "\"node\""
param *.manager.moduleType "\"Car\""
param *.manager.updateInterval 0.01s
param *.node[*].appl.attackStart 30s
param *.node[*].appl.attackerType 3
param *.node[*].appl.simulationDuration "60 s"
param *.node[*].appl_type "\"SimplePlatooningApp\""
param *.node[*].helper.nCars 8
param *.node[*].helper.nLanes 1
param *.node[*].helper.platoonSize 8
param *.node[*].helper_type "\"PositionHelper\""
param *.node[*].mobility.x 0
param *.node[*].mobility.y 0
param *.node[*].mobility.z 1.895
param *.node[*].prot.attackStart 30s
param *.node[*].prot.attackerType 3
param *.node[*].prot.attackingNode 3
param *.node[*].prot.beaconingInterval 0.1s
param *.node[*].prot.fakeAcc "(3 == 4)"
param *.node[*].prot.fakePos "(3 == 2)"
param *.node[*].prot.fakeSpeed "(3 == 3)"
param *.node[*].prot.maliciousAcc "-30 mpss"
param *.node[*].prot.maliciousSpeed 0kmph
param *.node[*].prot.packetSize 200
param *.node[*].prot.priority 2
param *.node[*].prot.shiftX "7 m"
param *.node[*].prot.useControllerAcceleration true
param *.node[*].protocol_type "\"SimplePlatooningBeaconing\""
param *.node[*].scenario.accHeadway 0.1s
param *.node[*].scenario.caccC1 0.5
param *.node[*].scenario.caccOmegaN "0.2 Hz"
param *.node[*].scenario.caccSpacing 5m
param *.node[*].scenario.caccXi 1
param *.node[*].scenario.controller "\"CACC\""
param *.node[*].scenario.engineTau "0.5 s"
param *.node[*].scenario.leaderHeadway 1.2s
param *.node[*].scenario.leaderSpeed 50kmph
param *.node[*].scenario.ploegH 0.5s
param *.node[*].scenario.ploegKd 0.7
param *.node[*].scenario.ploegKp 0.2
param *.node[*].scenario.useRealisticEngine false
param *.node[*].scenario_type "\"SinusoidalScenario\""
param *.node[*].unicast.packetLossRate 0
param *.obstacles.debug false
param *.playgroundSizeX 65000m
param *.playgroundSizeY 25000m
param *.playgroundSizeZ 50m
param *.world.use2D false
param *.world.useTorus false

vector 0  scenario.node[0].appl  distance  ETV
vector 1  scenario.node[0].appl  relativeSpeed  ETV
vector 2  scenario.node[0].appl  nodeId  ETV
vector 6  scenario.node[0].appl  acceleration  ETV
vector 7  scenario.node[0].appl  controllerAcceleration  ETV
vector 3  scenario.node[0].appl  speed  ETV
vector 4  scenario.node[0].appl  posx  ETV
vector 5  scenario.node[0].appl  posy  ETV
vector 22  scenario.node[1].appl  distance  ETV
vector 23  scenario.node[1].appl  relativeSpeed  ETV
vector 24  scenario.node[1].appl  nodeId  ETV
vector 28  scenario.node[1].appl  acceleration  ETV
vector 29  scenario.node[1].appl  controllerAcceleration  ETV
vector 25  scenario.node[1].appl  speed  ETV
vector 26  scenario.node[1].appl  posx  ETV
vector 27  scenario.node[1].appl  posy  ETV
vector 44  scenario.node[2].appl  distance  ETV
vector 45  scenario.node[2].appl  relativeSpeed  ETV
vector 46  scenario.node[2].appl  nodeId  ETV
vector 50  scenario.node[2].appl  acceleration  ETV
vector 51  scenario.node[2].appl  controllerAcceleration  ETV
vector 47  scenario.node[2].appl  speed  ETV
vector 48  scenario.node[2].appl  posx  ETV
vector 49  scenario.node[2].appl  posy  ETV
vector 66  scenario.node[3].appl  distance  ETV
vector 67  scenario.node[3].appl  relativeSpeed  ETV
vector 68  scenario.node[3].appl  nodeId  ETV
vector 72  scenario.node[3].appl  acceleration  ETV
vector 73  scenario.node[3].appl  controllerAcceleration  ETV
vector 69  scenario.node[3].appl  speed  ETV
vector 70  scenario.node[3].appl  posx  ETV
vector 71  scenario.node[3].appl  posy  ETV
vector 88  scenario.node[4].appl  distance  ETV
vector 89  scenario.node[4].appl  relativeSpeed  ETV
vector 90  scenario.node[4].appl  nodeId  ETV
vector 94  scenario.node[4].appl  acceleration  ETV
vector 95  scenario.node[4].appl  controllerAcceleration  ETV
vector 91  scenario.node[4].appl  speed  ETV
vector 92  scenario.node[4].appl  posx  ETV
vector 93  scenario.node[4].appl  posy  ETV
vector 110  scenario.node[5].appl  distance  ETV
vector 111  scenario.node[5].appl  relativeSpeed  ETV
vector 112  scenario.node[5].appl  nodeId  ETV
vector 116  scenario.node[5].appl  acceleration  ETV
vector 117  scenario.node[5].appl  controllerAcceleration  ETV
vector 113  scenario.node[5].appl  speed  ETV
vector 114  scenario.node[5].appl  posx  ETV
vector 115  scenario.node[5].appl  posy  ETV
vector 132  scenario.node[6].appl  distance  ETV
vector 133  scenario.node[6].appl  relativeSpeed  ETV
vector 134  scenario.node[6].appl  nodeId  ETV
vector 138  scenario.node[6].appl  acceleration  ETV
vector 139  scenario.node[6].appl  controllerAcceleration  ETV
vector 135  scenario.node[6].appl  speed  ETV
vector 136  scenario.node[6].appl  posx  ETV
vector 137  scenario.node[6].appl  posy  ETV
vector 154  scenario.node[7].appl  distance  ETV
vector 155  scenario.node[7].appl  relativeSpeed  ETV
vector 156  scenario.node[7].appl  nodeId  ETV
vector 160  scenario.node[7].appl  acceleration  ETV
vector 161  scenario.node[7].appl  controllerAcceleration  ETV
vector 157  scenario.node[7].appl  speed  ETV
vector 158  scenario.node[7].appl  posx  ETV
vector 159  scenario.node[7].appl  posy  ETV
vector 35  scenario.node[1].prot  leaderDelay  ETV
vector 33  scenario.node[1].prot  leaderDelayId  ETV
vector 36  scenario.node[1].prot  frontDelay  ETV
vector 34  scenario.node[1].prot  frontDelayId  ETV
vector 57  scenario.node[2].prot  leaderDelay  ETV
vector 55  scenario.node[2].prot  leaderDelayId  ETV
vector 79  scenario.node[3].prot  leaderDelay  ETV
vector 77  scenario.node[3].prot  leaderDelayId  ETV
vector 101  scenario.node[4].prot  leaderDelay  ETV
vector 99  scenario.node[4].prot  leaderDelayId  ETV
vector 123  scenario.node[5].prot  leaderDelay  ETV
vector 121  scenario.node[5].prot  leaderDelayId  ETV
vector 145  scenario.node[6].prot  leaderDelay  ETV
vector 143  scenario.node[6].prot  leaderDelayId  ETV
vector 167  scenario.node[7].prot  leaderDelay  ETV
vector 165  scenario.node[7].prot  leaderDelayId  ETV
vector 168  scenario.node[7].prot  frontDelay  ETV
vector 166  scenario.node[7].prot  frontDelayId  ETV
vector 58  scenario.node[2].prot  frontDelay  ETV
vector 56  scenario.node[2].prot  frontDelayId  ETV
vector 124  scenario.node[5].prot  frontDelay  ETV
vector 122  scenario.node[5].prot  frontDelayId  ETV
vector 80  scenario.node[3].prot  frontDelay  ETV
vector 78  scenario.node[3].prot  frontDelayId  ETV
vector 146  scenario.node[6].prot  frontDelay  ETV
vector 144  scenario.node[6].prot  frontDelayId  ETV
vector 102  scenario.node[4].prot  frontDelay  ETV
vector 100  scenario.node[4].prot  frontDelayId  ETV
vector 8  scenario.node[0].prot  nodeId  ETV
vector 9  scenario.node[0].prot  busyTime  ETV
vector 10  scenario.node[0].prot  collisions  ETV
vector 30  scenario.node[1].prot  nodeId  ETV
vector 31  scenario.node[1].prot  busyTime  ETV
vector 32  scenario.node[1].prot  collisions  ETV
vector 52  scenario.node[2].prot  nodeId  ETV
vector 53  scenario.node[2].prot  busyTime  ETV
vector 54  scenario.node[2].prot  collisions  ETV
vector 74  scenario.node[3].prot  nodeId  ETV
vector 75  scenario.node[3].prot  busyTime  ETV
vector 76  scenario.node[3].prot  collisions  ETV
vector 96  scenario.node[4].prot  nodeId  ETV
vector 97  scenario.node[4].prot  busyTime  ETV
vector 98  scenario.node[4].prot  collisions  ETV
vector 118  scenario.node[5].prot  nodeId  ETV
vector 119  scenario.node[5].prot  busyTime  ETV
vector 120  scenario.node[5].prot  collisions  ETV
vector 140  scenario.node[6].prot  nodeId  ETV
vector 141  scenario.node[6].prot  busyTime  ETV
vector 142  scenario.node[6].prot  collisions  ETV
vector 162  scenario.node[7].prot  nodeId  ETV
vector 163  scenario.node[7].prot  busyTime  ETV
vector 164  scenario.node[7].prot  collisions  ETV
7	11065 7637 232 178133 1.11 33.01 320 -1.5 1.5 6.2460228212196 505.05984018651
6	18702 10030 232 178133 1.11 33.01 320 -1.472274679513 1.4513407705126 10.778920418983 336.8516252309
5	28732 6432 232 178133 1.11 33.01 320 36.55 36.55 11696 427488.8
4	35164 9609 232 178133 1.11 33.01 320 103.73484382616 551.21315434867 105085.01746341 39866587.324447
3	44773 9597 232 178133 1.11 33.01 320 12.59914837223 15.853603639796 4489.0555218178 63211.339307193
1	54370 5152 232 178133 1.11 33.01 320 0 0 0 0
0	59522 5472 232 178133 1.11 33.01 320 -1 -1 -320 320
2	64994 5152 232 178133 1.11 33.01 320 0 0 0 0
10	70146 453 5056 177944 2 33 32 0 0 0 0
9	70599 825 5056 177944 2 33 32 0.022754155264 0.026262199507 0.836504005432 0.021878681534566
8	71424 421 5056 177944 2 33 32 0 0 0 0
29	71845 10287 233 178134 1.11 33.01 320 -1.5233934268137 1.5241492075817 7.4445961073246 510.6674457872
28	82132 10344 233 178134 1.11 33.01 320 -1.4872877097888 1.4632119896703 11.416997294516 340.14935713033
27	92476 6752 233 178134 1.11 33.01 320 36.55 36.55 11696 427488.8
26	99228 9922 233 178134 1.11 33.01 320 94.734843826294 542.13562135841 102202.01317305 37999456.888969
25	109150 9912 233 178134 1.11 33.01 320 12.591606548197 15.859016035216 4488.3021771732 63192.587988697
23	119062 10830 233 178134 1.11 33.01 320 -0.085370614405605 0.085492913328835 0.64555544040098 1.2215522023233
22	129892 9921 233 178134 1.11 33.01 320 4.9094713952348 5.1291545418569 1602.9892234641 8031.0655590764
24	139813 5472 233 178134 1.11 33.01 320 1 1 320 320
36	145285 12648 836 177616 1.269557810561 32.969562344467 318 0.09999877886 0.100011858434 31.800003314446 3.1800006674811
35	157933 12648 836 177616 1.269557810561 32.969562344467 318 0.09999877886 0.100011858434 31.800003314446 3.1800006674811
34	170581 8588 836 177616 1.269557810561 32.969562344467 318 1 1 318 318
33	179169 8588 836 177616 1.269557810561 32.969562344467 318 1 1 318 318
32	187757 453 5057 177945 2 33 32 0 0 0 0
31	188210 862 5057 177945 2 33 32 0.022754185285 0.026262199235 0.836504035715 0.021878682914519
30	189072 453 5057 177945 2 33 32 1 1 32 32
51	189525 10308 234 178135 1.11 33.01 320 -1.5293286418104 1.5293868305991 7.4895917510197 512.18977075972
50	199833 10360 234 178135 1.11 33.01 320 -1.4784118006608 1.4535038993126 11.472097773248 336.87034002947
49	210193 6752 234 178135 1.11 33.01 320 36.55 36.55 11696 427488.8
48	216945 9914 234 178135 1.11 33.01 320 85.734847640991 533.11741209519 99320.693878655 36185133.248235
47	226859 9917 234 178135 1.11 33.01 320 12.59754485716 15.852838000542 4488.1216363169 63185.090901284
45	236776 11044 234 178135 1.11 33.01 320 -0.011889282479549 0.011086345333856 0.066370883328723 0.011330783917152
44	247820 9915 234 178135 1.11 33.01 320 4.9825738023807 5.0363330440238 1601.3156835793 8013.2189599579
46	257735 5472 234 178135 1.11 33.01 320 2 2 640 1280
58	263207 12660 1046 177820 1.299189200831 32.999193745231 318 0.099998778849 0.10001188167 31.80000332494 3.1800006695807
57	275867 12653 842 177622 1.269557840582 32.969562374549 318 0.099998778859 0.100011858438 31.800003314507 3.1800006674933
56	288520 8593 1046 177820 1.299189200831 32.999193745231 318 2 2 636 1272
55	297113 8590 842 177622 1.269557840582 32.969562374549 318 2 2 636 1272
54	305703 453 5058 177946 2 33 32 0 0 0 0
53	306156 860 5058 177946 2 33 32 0.022754215306 0.026262199165 0.836504065797 0.021878684283927
52	307016 453 5058 177946 2 33 32 2 2 64 128
73	307469 10286 235 178136 1.11 33.01 320 -1.488888752372 1.4893729116495 8.1952462088916 476.83632565682
72	317755 10337 235 178136 1.11 33.01 320 -1.4638941721065 1.4373649683776 11.56291683512 329.75065588666
71	328092 6752 235 178136 1.11 33.01 320 36.55 36.55 11696 427488.8
70	334844 9920 235 178136 1.11 33.01 320 76.734847640991 524.08162503101 96439.317828517 34422910.646069
69	344764 9925 235 178136 1.11 33.01 320 12.612456069581 15.839340167311 4487.7663924443 63170.242852718
67	354689 10855 235 178136 1.11 33.01 320 -0.037725855830377 0.033958280317069 0.24052289487448 0.13647596003673
66	365544 9875 235 178136 1.11 33.01 320 4.9599643837865 5.0696737340895 1601.3689452607 8013.9250371215
68	375419 5472 235 178136 1.11 33.01 320 3 3 960 2880
80	380891 12666 1180 177969 1.300210350935 33.000214964344 318 0.099998778852 0.100011894306 31.800003393949 3.1800006833831
79	393557 12638 848 177628 1.269557870602 32.96956240469 318 0.099998778857 0.100011858449 31.800003314628 3.1800006675175
78	406195 8592 1180 177969 1.300210350935 33.000214964344 318 3 3 954 2862
77	414787 8581 848 177628 1.269557870602 32.96956240469 318 3 3 954 2862
76	423368 453 5059 177947 2 33 32 0 0 0 0
75	423821 859 5059 177947 2 33 32 0.022753185285 0.026262199305 0.836503035656 0.021878637404053
74	424680 453 5059 177947 2 33 32 3 3 96 288
95	425133 10305 236 178137 1.11 33.01 320 -2.9213137263422 1.4833558252094 -69.70235735764 530.11827070354
94	435438 10333 236 178137 1.11 33.01 320 -2.3663960788067 1.4275171527817 -59.733990444174 372.65396680505
93	445771 6752 236 178137 1.11 33.01 320 36.55 36.55 11696 427488.8
92	452523 9922 236 178137 1.11 33.01 320 67.734847640991 504.6500759346 93454.746903052 32608820.237163
91	462445 9910 236 178137 1.11 33.01 320 8.0151293476703 15.826067280671 4380.9662437928 60603.950863698
89	472355 10946 236 178137 1.11 33.01 320 -0.01216431572978 7.0650392273939 106.68451948313 531.89014199479
88	483301 9878 236 178137 1.11 33.01 320 4.9850564581482 15.29037084014 1702.4349224917 9675.5263633568
90	493179 5472 236 178137 1.11 33.01 320 4 4 1280 5120
102	498651 12981 1312 178107 1.306028501039 33.006020185264 318 0.099907778972 0.100089782295 31.799925464765 3.1799856402175
101	511632 12962 854 177634 1.269557900623 32.969562468333 318 0.099998778855 0.100011860486 31.80000334825 3.1800006742419
100	524594 8911 1312 178107 1.306028501039 33.006020185264 318 4 4 1272 5088
99	533505 8588 854 177634 1.269557900623 32.969562468333 318 4 4 1272 5088
98	542093 453 5060 177948 2 33 32 0 0 0 0
97	542546 863 5060 177948 2 33 32 0.022754155264 0.026262199361 0.836503971311 0.021878679743303
96	543409 453 5060 177948 2 33 32 4 4 128 512
139	543862 10595 238 178139 1.11 33.01 320 -2.4966785125753 1.4846827018244 -20.971675746109 458.60765189703
138	554457 10664 238 178139 1.11 33.01 320 -1.6649558441667 1.4280810601067 -13.177925795788 305.93250863228
137	565121 7072 238 178139 1.11 33.01 320 36.55 36.55 11696 427488.8
136	572193 10236 238 178139 1.11 33.01 320 49.734845733643 494.08974841389 87768.445365729 29420361.093264
135	582429 10243 238 178139 1.11 33.01 320 12.589274667387 15.822589941335 4456.9886758801 62317.957490838
133	592672 11104 238 178139 1.11 33.01 320 -1.7031978403682 0.046328192358921 -25.35129921508 31.804810585549
132	603776 10238 238 178139 1.11 33.01 320 2.5293656332023 5.0375579050124 1577.8269824866 7814.8673873308
134	614014 5792 238 178139 1.11 33.01 320 6 6 1920 11520
146	619806 12975 1249 178038 1.305615440997 33.005607064166 318 0.099998778836 0.100011830936 31.799990403709 3.1799980851952
145	632781 12978 866 177646 1.269557960665 32.969562504329 318 0.099998778853 0.100011859087 31.800003324204 3.1800006694327
144	645759 8916 1249 178038 1.305615440997 33.005607064166 318 6 6 1908 11448
143	654675 8915 866 177646 1.269557960665 32.969562504329 318 6 6 1908 11448
142	663590 485 5062 177950 2 33 32 0 0 0 0
141	664075 894 5062 177950 2 33 32 0.022754095223 0.026262199288 0.836503935776 0.021878678297439
140	664969 485 5062 177950 2 33 32 6 6 192 1152
161	665454 10635 239 178140 1.11 33.01 320 -2.2449956253462 1.5049027642349 -10.161904200113 481.44526009522
160	676089 10696 239 178140 1.11 33.01 320 -1.4497273603782 1.4254867377076 -2.4041038380794 308.38831066047
159	686785 7072 239 178140 1.11 33.01 320 36.55 36.55 11696 427488.8
158	693857 10246 239 178140 1.11 33.01 320 40.734846687317 486.53509052446 84901.063012479 27879058.501728
157	704103 10229 239 178140 1.11 33.01 320 12.624016641819 15.819260956633 4471.8174634928 62713.072769953
155	714332 11371 239 178140 1.11 33.01 320 -1.0472091367513 0.0045407914176394 -14.697008354747 10.559006618983
154	725703 10238 239 178140 1.11 33.01 320 3.5759350633282 5.0189441985916 1587.6789290027 7888.7149243928
156	735941 5792 239 178140 1.11 33.01 320 7 7 2240 15680
168	741733 12971 980 177760 1.292107050727 32.992098580318 318 0.099998778853 0.100011826349 31.799990310131 3.1799980664796
167	754704 12967 872 177652 1.269557990685 32.969562529706 318 0.099998778853 0.100011858795 31.800003319561 3.1800006685041
166	767671 8906 980 177760 1.292107050727 32.992098580318 318 7 7 2226 15582
165	776577 8901 872 177652 1.269557990685 32.969562529706 318 7 7 2226 15582
164	785478 485 5063 177951 2 33 32 0 0 0 0
163	785963 894 5063 177951 2 33 32 0.022754065202 0.026262199331 0.836503910506 0.021878677180654
162	786857 485 5063 177951 2 33 32 7 7 224 1568
110	787342 10234 237 178147 1.11 33.04 321 0 5.018762597982 1549.9950034779 7659.2644139424
111	797576 11192 237 178147 1.11 33.04 321 -2.893096652915 0.01916027281435 -52.6608475282 117.25598094749
112	808768 5811 237 178147 1.11 33.04 321 5 5 1605 8025
113	814579 10257 237 178147 1.11 33.04 321 10.857881348129 15.816622504074 4442.1892159207 61798.888968028
114	824836 10270 237 178147 1.11 33.04 321 58.734847640991 500.91037816742 91126.669579557 31254276.190618
115	835106 7095 237 178147 1.11 33.04 321 36.55 36.55 11732.55 428824.7025
116	842201 10734 237 178147 1.11 33.04 321 -2.1118888148226 1.4221569123524 -32.716098063691 314.5721703474
117	852935 10702 237 178147 1.11 33.04 321 -2.8531193295761 1.5049213434874 -45.52071270369 494.92097127617
118	863637 485 5061 177949 2 33 32 5 5 160 800
119	864122 890 5061 177949 2 33 32 0.022753125244 0.026262199367 0.836502957556 0.021878633723763
120	865012 485 5061 177949 2 33 32 0 0 0 0
121	865497 8910 860 177640 1.269557930644 32.969562482378 318 5 5 1590 7950
122	874407 8910 1112 177886 1.299602290893 32.999593853472 318 5 5 1590 7950
123	883317 12971 860 177640 1.269557930644 32.969562482378 318 0.099998778852 0.10001185959 31.800003332274 3.1800006710467
124	896288 12977 1112 177886 1.299602290893 32.999593853472 318 0.099998778842 0.100011833865 31.799990343119 3.1799980730774
