file 921401 1512141465                                          
version 2
run SinusoidalSpeedInjectionAttack-25-20171201-16:17:28-55098
attr CACCSpacing 20
attr attackAcc -30
attr attackPos 7
attr attackSpeed -50
attr attackStart 30
attr attacker 3
attr beaconInterval 0.1
attr configname SinusoidalSpeedInjectionAttack
attr controller 1
attr datetime 20171201-16:17:28
attr experiment SinusoidalSpeedInjectionAttack
attr fakeAcc "(3 == 4)"
attr fakePos "(3 == 2)"
attr fakeSpeed "(3 == 3)"
attr inifile omnetpp_25.ini
attr iterationvars "$attacker=3, $attackSpeed=-50, $attackPos=7, $attackAcc=-30, $leaderSpeed=100, $controller=1, $CACCSpacing=20, $sController=\"CACC\", $attackStart=30, $0=20, $1=0, $nCars=8, $platoonSize=8, $nLanes=1, $beaconInterval=0.1, $priority=2, $packetSize=200, $ploegH=0.5, $leaderHeadway=1.2, $fakeSpeed=(3 == 3), $fakeAcc=(3 == 4), $fakePos=(3 == 2)"
attr iterationvarsf attacker=3,attackSpeed=-50,attackPos=7,attackAcc=-30,leaderSpeed=100,controller=1,CACCSpacing=20,sController=CACC,attackStart=30,20,0,nCars=8,platoonSize=8,nLanes=1,beaconInterval=0.1,priority=2,packetSize=200,ploegH=0.5,leaderHeadway=1.2,fakeSpeed=(3_==_3),fakeAcc=(3_==_4),fakePos=(3_==_2)-
attr leaderHeadway 1.2
attr leaderSpeed 100
attr measurement "$attacker=3, $attackSpeed=-50, $attackPos=7, $attackAcc=-30, $leaderSpeed=100, $controller=1, $CACCSpacing=20, $sController=\"CACC\", $attackStart=30, $0=20, $1=0, $nCars=8, $platoonSize=8, $nLanes=1, $beaconInterval=0.1, $priority=2, $packetSize=200, $ploegH=0.5, $leaderHeadway=1.2, $fakeSpeed=(3 == 3), $fakeAcc=(3 == 4), $fakePos=(3 == 2)"
attr nCars 8
attr nLanes 1
attr network scenario
attr packetSize 200
attr platoonSize 8
attr ploegH 0.5
attr priority 2
attr processid 55098
attr repetition 0
attr replication #0
attr resultdir results
attr runnumber 25
attr sController "\"CACC\""
attr seedset 0
param **.coreDebug false
param **.debug false
param **.headway 0.1s
param **.numberOfCars 8
param **.numberOfCarsPerPlatoon 8
param **.numberOfLanes 1
param **.numericController 1
param **.traffic.nCars 8
param **.traffic.nLanes 1
param **.traffic.platoonInsertDistance 20m
param **.traffic.platoonInsertHeadway 0s
param **.traffic.platoonInsertSpeed 100kmph
param **.traffic.platoonInsertTime "1 s"
param **.traffic.platoonLeaderHeadway 1.2s
param **.traffic.platoonSize 8
param **.traffic.platooningVType "\"vtypeauto\""
param **.traffic_type "\"PlatoonsTrafficManager\""
param *.**.nic.mac1609_4.bitrate 6Mbps
param *.**.nic.mac1609_4.txPower 100mW
param *.**.nic.mac1609_4.useServiceChannel false
param *.**.nic.phy80211p.analogueModels "xmldoc(\"config.xml\")"
param *.**.nic.phy80211p.decider "xmldoc(\"config.xml\")"
param *.**.nic.phy80211p.maxTXPower 100mW
param *.**.nic.phy80211p.sensitivity -94dBm
param *.**.nic.phy80211p.thermalNoise -95dBm
param *.**.nic.phy80211p.usePropagationDelay true
param *.**.nic.phy80211p.useThermalNoise true
param *.annotations.draw false
param *.connectionManager.alpha 2.0
param *.connectionManager.carrierFrequency "5.890e9 Hz"
param *.connectionManager.pMax 100mW
param *.connectionManager.sat -94dBm
param *.connectionManager.sendDirect true
param *.manager.autoShutdown true
param *.manager.commandLine "\"sumo --remote-port $port --seed $seed --configuration-file $configFile\""
param *.manager.configFile "\"./sumocfg/freeway.sumo.cfg\""
param *.manager.host "\"localhost\""
param *.manager.margin 25
param *.manager.moduleDisplayString "\"\""
param *.manager.moduleName "\"node\""
param *.manager.moduleType "\"Car\""
param *.manager.updateInterval 0.01s
param *.node[*].appl.attackStart 30s
param *.node[*].appl.attackerType 3
param *.node[*].appl.simulationDuration "60 s"
param *.node[*].appl_type "\"SimplePlatooningApp\""
param *.node[*].helper.nCars 8
param *.node[*].helper.nLanes 1
param *.node[*].helper.platoonSize 8
param *.node[*].helper_type "\"PositionHelper\""
param *.node[*].mobility.x 0
param *.node[*].mobility.y 0
param *.node[*].mobility.z 1.895
param *.node[*].prot.attackStart 30s
param *.node[*].prot.attackerType 3
param *.node[*].prot.attackingNode 3
param *.node[*].prot.beaconingInterval 0.1s
param *.node[*].prot.fakeAcc "(3 == 4)"
param *.node[*].prot.fakePos "(3 == 2)"
param *.node[*].prot.fakeSpeed "(3 == 3)"
param *.node[*].prot.maliciousAcc "-30 mpss"
param *.node[*].prot.maliciousSpeed -50kmph
param *.node[*].prot.packetSize 200
param *.node[*].prot.priority 2
param *.node[*].prot.shiftX "7 m"
param *.node[*].prot.useControllerAcceleration true
param *.node[*].protocol_type "\"SimplePlatooningBeaconing\""
param *.node[*].scenario.accHeadway 0.1s
param *.node[*].scenario.caccC1 0.5
param *.node[*].scenario.caccOmegaN "0.2 Hz"
param *.node[*].scenario.caccSpacing 20m
param *.node[*].scenario.caccXi 1
param *.node[*].scenario.controller "\"CACC\""
param *.node[*].scenario.engineTau "0.5 s"
param *.node[*].scenario.leaderHeadway 1.2s
param *.node[*].scenario.leaderSpeed 100kmph
param *.node[*].scenario.ploegH 0.5s
param *.node[*].scenario.ploegKd 0.7
param *.node[*].scenario.ploegKp 0.2
param *.node[*].scenario.useRealisticEngine false
param *.node[*].scenario_type "\"SinusoidalScenario\""
param *.node[*].unicast.packetLossRate 0
param *.obstacles.debug false
param *.playgroundSizeX 65000m
param *.playgroundSizeY 25000m
param *.playgroundSizeZ 50m
param *.world.use2D false
param *.world.useTorus false

vector 0  scenario.node[0].appl  distance  ETV
vector 1  scenario.node[0].appl  relativeSpeed  ETV
vector 2  scenario.node[0].appl  nodeId  ETV
vector 6  scenario.node[0].appl  acceleration  ETV
vector 7  scenario.node[0].appl  controllerAcceleration  ETV
vector 3  scenario.node[0].appl  speed  ETV
vector 4  scenario.node[0].appl  posx  ETV
vector 5  scenario.node[0].appl  posy  ETV
vector 22  scenario.node[1].appl  distance  ETV
vector 23  scenario.node[1].appl  relativeSpeed  ETV
vector 24  scenario.node[1].appl  nodeId  ETV
vector 28  scenario.node[1].appl  acceleration  ETV
vector 29  scenario.node[1].appl  controllerAcceleration  ETV
vector 25  scenario.node[1].appl  speed  ETV
vector 26  scenario.node[1].appl  posx  ETV
vector 27  scenario.node[1].appl  posy  ETV
vector 44  scenario.node[2].appl  distance  ETV
vector 45  scenario.node[2].appl  relativeSpeed  ETV
vector 46  scenario.node[2].appl  nodeId  ETV
vector 50  scenario.node[2].appl  acceleration  ETV
vector 51  scenario.node[2].appl  controllerAcceleration  ETV
vector 47  scenario.node[2].appl  speed  ETV
vector 48  scenario.node[2].appl  posx  ETV
vector 49  scenario.node[2].appl  posy  ETV
vector 66  scenario.node[3].appl  distance  ETV
vector 67  scenario.node[3].appl  relativeSpeed  ETV
vector 68  scenario.node[3].appl  nodeId  ETV
vector 72  scenario.node[3].appl  acceleration  ETV
vector 73  scenario.node[3].appl  controllerAcceleration  ETV
vector 69  scenario.node[3].appl  speed  ETV
vector 70  scenario.node[3].appl  posx  ETV
vector 71  scenario.node[3].appl  posy  ETV
vector 88  scenario.node[4].appl  distance  ETV
vector 89  scenario.node[4].appl  relativeSpeed  ETV
vector 90  scenario.node[4].appl  nodeId  ETV
vector 94  scenario.node[4].appl  acceleration  ETV
vector 95  scenario.node[4].appl  controllerAcceleration  ETV
vector 91  scenario.node[4].appl  speed  ETV
vector 92  scenario.node[4].appl  posx  ETV
vector 93  scenario.node[4].appl  posy  ETV
vector 110  scenario.node[5].appl  distance  ETV
vector 111  scenario.node[5].appl  relativeSpeed  ETV
vector 112  scenario.node[5].appl  nodeId  ETV
vector 116  scenario.node[5].appl  acceleration  ETV
vector 117  scenario.node[5].appl  controllerAcceleration  ETV
vector 113  scenario.node[5].appl  speed  ETV
vector 114  scenario.node[5].appl  posx  ETV
vector 115  scenario.node[5].appl  posy  ETV
vector 132  scenario.node[6].appl  distance  ETV
vector 133  scenario.node[6].appl  relativeSpeed  ETV
vector 134  scenario.node[6].appl  nodeId  ETV
vector 138  scenario.node[6].appl  acceleration  ETV
vector 139  scenario.node[6].appl  controllerAcceleration  ETV
vector 135  scenario.node[6].appl  speed  ETV
vector 136  scenario.node[6].appl  posx  ETV
vector 137  scenario.node[6].appl  posy  ETV
vector 154  scenario.node[7].appl  distance  ETV
vector 155  scenario.node[7].appl  relativeSpeed  ETV
vector 156  scenario.node[7].appl  nodeId  ETV
vector 160  scenario.node[7].appl  acceleration  ETV
vector 161  scenario.node[7].appl  controllerAcceleration  ETV
vector 157  scenario.node[7].appl  speed  ETV
vector 158  scenario.node[7].appl  posx  ETV
vector 159  scenario.node[7].appl  posy  ETV
vector 80  scenario.node[3].prot  frontDelay  ETV
vector 78  scenario.node[3].prot  frontDelayId  ETV
vector 58  scenario.node[2].prot  frontDelay  ETV
vector 56  scenario.node[2].prot  frontDelayId  ETV
vector 168  scenario.node[7].prot  frontDelay  ETV
vector 166  scenario.node[7].prot  frontDelayId  ETV
vector 35  scenario.node[1].prot  leaderDelay  ETV
vector 33  scenario.node[1].prot  leaderDelayId  ETV
vector 36  scenario.node[1].prot  frontDelay  ETV
vector 34  scenario.node[1].prot  frontDelayId  ETV
vector 57  scenario.node[2].prot  leaderDelay  ETV
vector 55  scenario.node[2].prot  leaderDelayId  ETV
vector 79  scenario.node[3].prot  leaderDelay  ETV
vector 77  scenario.node[3].prot  leaderDelayId  ETV
vector 101  scenario.node[4].prot  leaderDelay  ETV
vector 99  scenario.node[4].prot  leaderDelayId  ETV
vector 123  scenario.node[5].prot  leaderDelay  ETV
vector 121  scenario.node[5].prot  leaderDelayId  ETV
vector 145  scenario.node[6].prot  leaderDelay  ETV
vector 143  scenario.node[6].prot  leaderDelayId  ETV
vector 167  scenario.node[7].prot  leaderDelay  ETV
vector 165  scenario.node[7].prot  leaderDelayId  ETV
vector 124  scenario.node[5].prot  frontDelay  ETV
vector 122  scenario.node[5].prot  frontDelayId  ETV
vector 102  scenario.node[4].prot  frontDelay  ETV
vector 100  scenario.node[4].prot  frontDelayId  ETV
vector 146  scenario.node[6].prot  frontDelay  ETV
vector 144  scenario.node[6].prot  frontDelayId  ETV
vector 8  scenario.node[0].prot  nodeId  ETV
vector 9  scenario.node[0].prot  busyTime  ETV
vector 10  scenario.node[0].prot  collisions  ETV
vector 30  scenario.node[1].prot  nodeId  ETV
vector 31  scenario.node[1].prot  busyTime  ETV
vector 32  scenario.node[1].prot  collisions  ETV
vector 52  scenario.node[2].prot  nodeId  ETV
vector 53  scenario.node[2].prot  busyTime  ETV
vector 54  scenario.node[2].prot  collisions  ETV
vector 74  scenario.node[3].prot  nodeId  ETV
vector 75  scenario.node[3].prot  busyTime  ETV
vector 76  scenario.node[3].prot  collisions  ETV
vector 96  scenario.node[4].prot  nodeId  ETV
vector 97  scenario.node[4].prot  busyTime  ETV
vector 98  scenario.node[4].prot  collisions  ETV
vector 118  scenario.node[5].prot  nodeId  ETV
vector 119  scenario.node[5].prot  busyTime  ETV
vector 120  scenario.node[5].prot  collisions  ETV
vector 140  scenario.node[6].prot  nodeId  ETV
vector 141  scenario.node[6].prot  busyTime  ETV
vector 142  scenario.node[6].prot  collisions  ETV
vector 162  scenario.node[7].prot  nodeId  ETV
vector 163  scenario.node[7].prot  busyTime  ETV
vector 164  scenario.node[7].prot  collisions  ETV
7	11094 7732 232 180918 1.11 33.51 325 -1.5 1.5 -1.2539813132655 516.30984025099
6	18826 10201 232 180918 1.11 33.51 325 -1.4722746794938 1.451340770512 5.2966617581671 342.92524460201
5	29027 6537 232 180918 1.11 33.51 325 36.55 36.55 11878.75 434168.3125
4	35564 9749 232 180918 1.11 33.51 325 204.21764297459 1109.0664230501 213645.21232262 162703451.49494
3	45313 9752 232 180918 1.11 33.51 325 26.488037261118 29.742492528104 9076.4603275269 253723.3768276
1	55065 5237 232 180918 1.11 33.51 325 0 0 0 0
0	60302 5562 232 180918 1.11 33.51 325 -1 -1 -325 325
2	65864 5237 232 180918 1.11 33.51 325 0 0 0 0
10	71101 453 5102 177990 2 33 32 0 0 0 0
9	71554 614 5102 177990 2 33 32 0.022969 0.02625 0.836719 0.021888512461
8	72168 421 5102 177990 2 33 32 0 0 0 0
29	72589 9764 233 180919 1.11 33.51 325 -1.5112642291228 1.5120701307444 -0.19482112004178 514.35164312079
28	82353 10507 233 180919 1.11 33.51 325 -1.4820302895274 1.4492283744282 6.0144448307994 342.22244169284
27	92860 6862 233 180919 1.11 33.51 325 36.55 36.55 11878.75 434168.3125
26	99722 10076 233 180919 1.11 33.51 325 180.21764297485 1084.9613766238 205833.05439027 152617142.19829
25	109798 10069 233 180919 1.11 33.51 325 26.484959834617 29.741426917503 9075.4356815115 253666.78484235
23	119867 10999 233 180919 1.11 33.51 325 -0.07106480527489 0.076625316759483 0.97167939781644 0.88750411292613
22	130866 10061 233 180919 1.11 33.51 325 19.939712208032 20.145466381539 6512.1374394224 130486.92846402
24	140927 5562 233 180919 1.11 33.51 325 1 1 325 325
36	146489 12900 1032 181162 1.254913282269 33.554838601335 324 0.099909240509 0.100091242722 32.399938560616 3.2399882553854
35	159389 12900 1032 181162 1.254913282269 33.554838601335 324 0.099909240509 0.100091242722 32.399938560616 3.2399882553854
34	172289 8749 1032 181162 1.254913282269 33.554838601335 324 1 1 324 324
33	181038 8749 1032 181162 1.254913282269 33.554838601335 324 1 1 324 324
32	189787 453 5103 177991 2 33 32 0 0 0 0
31	190240 646 5103 177991 2 33 32 0.022969 0.02625 0.836719 0.021888512461
30	190886 453 5103 177991 2 33 32 1 1 32 32
51	191339 10447 234 180920 1.11 33.51 325 -1.4951715929476 1.4969403141346 0.58202204019912 502.48444745594
50	201786 10513 234 180920 1.11 33.51 325 -1.4749478849591 1.4483793295192 6.4559126782679 339.96742704589
49	212299 6862 234 180920 1.11 33.51 325 36.55 36.55 11878.75 434168.3125
48	219161 10085 234 180920 1.11 33.51 325 156.21764297485 1060.9691351224 198036.26680787 142930659.24645
47	229246 10080 234 180920 1.11 33.51 325 26.488661481507 29.738423576886 9075.5276867622 253670.62472027
45	239326 11012 234 180920 1.11 33.51 325 -0.042015735631203 0.035321632278009 -0.15214969895838 0.21189526531754
44	250338 10050 234 180920 1.11 33.51 325 19.926036215389 20.070368566761 6496.7894225062 129871.97534821
46	260388 5562 234 180920 1.11 33.51 325 2 2 650 1300
58	265950 12845 900 181024 1.22965940166 33.529662629044 324 0.099987240007 0.100000535341 32.400003468934 3.2400006947842
57	278795 12891 1038 181168 1.254913362325 33.554838681359 324 0.099909240517 0.100091242737 32.399938560584 3.239988255379
56	291686 8712 900 181024 1.22965940166 33.529662629044 324 2 2 648 1296
55	300398 8747 1038 181168 1.254913362325 33.554838681359 324 2 2 648 1296
54	309145 453 5104 177992 2 33 32 0 0 0 0
53	309598 646 5104 177992 2 33 32 0.022969 0.02625 0.836719 0.021888512461
52	310244 453 5104 177992 2 33 32 2 2 64 128
73	310697 10454 235 180921 1.11 33.51 325 -1.4890347547433 1.4892302580382 0.83317501368675 488.776424548
72	321151 10511 235 180921 1.11 33.51 325 -1.4633940841826 1.4358250217548 6.6200503138514 333.79953442791
71	331662 6862 235 180921 1.11 33.51 325 36.55 36.55 11878.75 434168.3125
70	338524 10084 235 180921 1.11 33.51 325 132.21764297485 1036.9551739717 190236.85087307 133613685.00134
69	348608 10073 235 180921 1.11 33.51 325 26.50145233166 29.728259437828 9075.3936327354 253659.29135445
67	358681 11116 235 180921 1.11 33.51 325 -0.022576863839589 0.018794910007784 0.06949489997659 0.039551680158221
66	369797 10042 235 180921 1.11 33.51 325 19.965708993444 20.045084633357 6499.4132537177 129976.64543534
68	379839 5562 235 180921 1.11 33.51 325 3 3 975 2925
80	385401 12902 832 180962 1.213906321605 33.513896549089 324 0.099987241264 0.100000535363 32.399990469034 3.2399980949596
79	398303 12862 1044 181174 1.25491344238 33.554838761459 324 0.099909240518 0.100091242747 32.399938560629 3.239988255388
78	411165 8757 832 180962 1.213906321605 33.513896549089 324 3 3 972 2916
77	419922 8713 1044 181174 1.25491344238 33.554838761459 324 3 3 972 2916
76	428635 453 5105 177993 2 33 32 0 0 0 0
75	429088 646 5105 177993 2 33 32 0.022968 0.02625 0.836718 0.021888466524
74	429734 453 5105 177993 2 33 32 3 3 96 288
95	430187 10448 236 180922 1.11 33.51 325 -11.153318382086 1.4819210747468 -241.14204359693 2056.6091433398
94	440635 10505 236 180922 1.11 33.51 325 -8.0629367074692 1.4260514185672 -225.76728559903 1660.5641801834
93	451140 6862 236 180922 1.11 33.51 325 36.55 36.55 11878.75 434168.3125
92	458002 10061 236 180922 1.11 33.51 325 108.21764297485 969.53686875406 181918.75244686 123658644.71354
91	468063 10086 236 180922 1.11 33.51 325 5.3723611330493 29.716237745189 8633.0937595485 236030.41752447
89	478149 11058 236 180922 1.11 33.51 325 -0.013924731210313 23.131966555747 442.23367268379 7540.135075017
88	489207 10068 236 180922 1.11 33.51 325 19.984401961259 62.955898287976 7009.2524287459 164155.65561229
90	499275 5562 236 180922 1.11 33.51 325 4 4 1300 5200
102	504837 13189 1246 180826 1.303564162878 33.503554132447 323 0.09998724155 0.100000533452 32.299990211119 3.2299980433779
101	518026 13226 1050 181180 1.254913522436 33.554838989442 324 0.099909240516 0.100091242749 32.399938708556 3.2399882849729
100	531252 9058 1246 180826 1.303564162878 33.503554132447 323 4 4 1292 5168
99	540310 8761 1050 181180 1.254913522436 33.554838989442 324 4 4 1296 5184
98	549071 453 5106 177994 2 33 32 0 0 0 0
97	549524 646 5106 177994 2 33 32 0.022969 0.02625 0.836719 0.021888512461
96	550170 453 5106 177994 2 33 32 4 4 128 512
139	550623 10769 238 180924 1.11 33.51 325 -4.3508005349247 1.4811501974347 -100.43564203054 687.70118695763
138	561392 10836 238 180924 1.11 33.51 325 -3.9963807909103 1.4264901475634 -83.092719234277 476.76414744177
137	572228 7187 238 180924 1.11 33.51 325 36.55 36.55 11878.75 434168.3125
136	579415 10401 238 180924 1.11 33.51 325 60.217642974853 951.54729515979 166693.36501716 107636252.35321
135	589816 10399 238 180924 1.11 33.51 325 19.638906489078 29.713639746548 8938.1932221042 246640.53561806
133	600215 11330 238 180924 1.11 33.51 325 -5.622504150887 0.022264281800137 -108.28534792167 456.31120877478
132	611545 10381 238 180924 1.11 33.51 325 9.3435398460102 20.011817415423 6374.2433613631 125818.48864231
134	621926 5887 238 180924 1.11 33.51 325 6 6 1950 11700
146	627813 13180 1312 180886 1.305160322989 33.50516319293 323 0.099987240083 0.100000528699 32.300003111491 3.2300006232951
145	640993 13221 1062 181192 1.254913682546 33.554839047544 324 0.099909240511 0.100091242741 32.399938606548 3.2399882645716
144	654214 9054 1312 180886 1.305160322989 33.50516319293 323 6 6 1938 11628
143	663268 9082 1062 181192 1.254913682546 33.554839047544 324 6 6 1944 11664
142	672350 485 5108 177996 2 33 32 0 0 0 0
141	672835 678 5108 177996 2 33 32 0.022969 0.02625 0.836719 0.021888512461
140	673513 485 5108 177996 2 33 32 6 6 192 1152
161	673998 10810 239 180925 1.11 33.51 325 -3.6052074048991 1.4938221802833 -63.332927180956 579.26215541034
160	684808 10878 239 180925 1.11 33.51 325 -3.2382580267488 1.4301669791063 -46.843215819831 371.28934353739
159	695686 7187 239 180925 1.11 33.51 325 36.55 36.55 11878.75 434168.3125
158	702873 10391 239 180925 1.11 33.51 325 36.217641067505 933.62662080376 158960.74224277 99946279.644437
157	713264 10401 239 180925 1.11 33.51 325 23.244134666397 29.718245299553 9000.2537694036 249621.78157108
155	723665 11511 239 180925 1.11 33.51 325 -3.5652643694104 0.010778953906776 -61.229620106989 153.785839458
154	735176 10405 239 180925 1.11 33.51 325 13.992778919581 20.027111099417 6433.8639853316 127605.91991136
156	745581 5887 239 180925 1.11 33.51 325 7 7 2275 15925
168	751468 13216 975 181111 1.254434801937 33.554438053626 324 0.099987240242 0.100000537062 32.400003493239 3.2400006996451
167	764684 13238 1068 181198 1.254913762602 33.554839106836 324 0.099909240517 0.100091242748 32.399938585784 3.2399882604189
166	777922 9083 975 181111 1.254434801937 33.554438053626 324 7 7 2268 15876
165	787005 9091 1068 181198 1.254913762602 33.554839106836 324 7 7 2268 15876
164	796096 485 5109 177997 2 33 32 0 0 0 0
163	796581 678 5109 177997 2 33 32 0.022969 0.02625 0.836719 0.021888512461
162	797259 485 5109 177997 2 33 32 7 7 224 1568
110	797744 10403 237 181341 1.11 33.6 326 0 20.032942220502 6257.2460575917 123276.40535607
111	808147 11296 237 181341 1.11 33.6 326 -8.5782899059456 0.039397559316356 -201.67501940797 1428.8392871603
112	819443 5905 237 181341 1.11 33.6 326 5 5 1630 8150
113	825348 10432 237 181341 1.11 33.6 326 13.559670778897 29.708379630114 8842.0654846486 242266.20893738
114	835780 10419 237 181341 1.11 33.6 326 84.217642974854 966.01011820724 175331.42474857 116513207.64247
115	846199 7209 237 181341 1.11 33.6 326 36.55 36.55 11915.3 435504.215
116	853408 10889 237 181341 1.11 33.6 326 -4.6992297190517 1.4230217375367 -144.73518767039 805.66975104507
117	864297 10840 237 181341 1.11 33.6 326 -5.2199678285375 1.4914430946833 -168.4297620742 1095.1012148116
118	875137 485 5107 177995 2 33 32 5 5 160 800
119	875622 678 5107 177995 2 33 32 0.022968 0.02625 0.836718 0.021888466524
120	876300 485 5107 177995 2 33 32 0 0 0 0
121	876785 9086 1056 181186 1.254913602491 33.554839004172 324 5 5 1620 8100
122	885871 9088 1172 181296 1.265750082823 33.565753238674 324 5 5 1620 8100
123	894959 13223 1056 181186 1.254913602491 33.554839004172 324 0.09990924051 0.100091242743 32.399938643231 3.2399882719081
124	908182 13219 1172 181296 1.265750082823 33.565753238674 324 0.099987240401 0.100000534063 32.400003397401 3.2400006804766
