file 924718 1512141884                                          
version 2
run SinusoidalSpeedInjectionAttack-109-20171201-16:24:28-119413
attr CACCSpacing 20
attr attackAcc -30
attr attackPos 7
attr attackSpeed 0
attr attackStart 30
attr attacker 3
attr beaconInterval 0.1
attr configname SinusoidalSpeedInjectionAttack
attr controller 1
attr datetime 20171201-16:24:28
attr experiment SinusoidalSpeedInjectionAttack
attr fakeAcc "(3 == 4)"
attr fakePos "(3 == 2)"
attr fakeSpeed "(3 == 3)"
attr inifile omnetpp_109.ini
attr iterationvars "$attacker=3, $attackSpeed=0, $attackPos=7, $attackAcc=-30, $leaderSpeed=150, $controller=1, $CACCSpacing=20, $sController=\"CACC\", $attackStart=30, $0=20, $1=0, $nCars=8, $platoonSize=8, $nLanes=1, $beaconInterval=0.1, $priority=2, $packetSize=200, $ploegH=0.5, $leaderHeadway=1.2, $fakeSpeed=(3 == 3), $fakeAcc=(3 == 4), $fakePos=(3 == 2)"
attr iterationvarsf attacker=3,attackSpeed=0,attackPos=7,attackAcc=-30,leaderSpeed=150,controller=1,CACCSpacing=20,sController=CACC,attackStart=30,20,0,nCars=8,platoonSize=8,nLanes=1,beaconInterval=0.1,priority=2,packetSize=200,ploegH=0.5,leaderHeadway=1.2,fakeSpeed=(3_==_3),fakeAcc=(3_==_4),fakePos=(3_==_2)-
attr leaderHeadway 1.2
attr leaderSpeed 150
attr measurement "$attacker=3, $attackSpeed=0, $attackPos=7, $attackAcc=-30, $leaderSpeed=150, $controller=1, $CACCSpacing=20, $sController=\"CACC\", $attackStart=30, $0=20, $1=0, $nCars=8, $platoonSize=8, $nLanes=1, $beaconInterval=0.1, $priority=2, $packetSize=200, $ploegH=0.5, $leaderHeadway=1.2, $fakeSpeed=(3 == 3), $fakeAcc=(3 == 4), $fakePos=(3 == 2)"
attr nCars 8
attr nLanes 1
attr network scenario
attr packetSize 200
attr platoonSize 8
attr ploegH 0.5
attr priority 2
attr processid 119413
attr repetition 4
attr replication #4
attr resultdir results
attr runnumber 109
attr sController "\"CACC\""
attr seedset 4
param **.coreDebug false
param **.debug false
param **.headway 0.1s
param **.numberOfCars 8
param **.numberOfCarsPerPlatoon 8
param **.numberOfLanes 1
param **.numericController 1
param **.traffic.nCars 8
param **.traffic.nLanes 1
param **.traffic.platoonInsertDistance 20m
param **.traffic.platoonInsertHeadway 0s
param **.traffic.platoonInsertSpeed 150kmph
param **.traffic.platoonInsertTime "1 s"
param **.traffic.platoonLeaderHeadway 1.2s
param **.traffic.platoonSize 8
param **.traffic.platooningVType "\"vtypeauto\""
param **.traffic_type "\"PlatoonsTrafficManager\""
param *.**.nic.mac1609_4.bitrate 6Mbps
param *.**.nic.mac1609_4.txPower 100mW
param *.**.nic.mac1609_4.useServiceChannel false
param *.**.nic.phy80211p.analogueModels "xmldoc(\"config.xml\")"
param *.**.nic.phy80211p.decider "xmldoc(\"config.xml\")"
param *.**.nic.phy80211p.maxTXPower 100mW
param *.**.nic.phy80211p.sensitivity -94dBm
param *.**.nic.phy80211p.thermalNoise -95dBm
param *.**.nic.phy80211p.usePropagationDelay true
param *.**.nic.phy80211p.useThermalNoise true
param *.annotations.draw false
param *.connectionManager.alpha 2.0
param *.connectionManager.carrierFrequency "5.890e9 Hz"
param *.connectionManager.pMax 100mW
param *.connectionManager.sat -94dBm
param *.connectionManager.sendDirect true
param *.manager.autoShutdown true
param *.manager.commandLine "\"sumo --remote-port $port --seed $seed --configuration-file $configFile\""
param *.manager.configFile "\"./sumocfg/freeway.sumo.cfg\""
param *.manager.host "\"localhost\""
param *.manager.margin 25
param *.manager.moduleDisplayString "\"\""
param *.manager.moduleName "\"node\""
param *.manager.moduleType "\"Car\""
param *.manager.updateInterval 0.01s
param *.node[*].appl.attackStart 30s
param *.node[*].appl.attackerType 3
param *.node[*].appl.simulationDuration "60 s"
param *.node[*].appl_type "\"SimplePlatooningApp\""
param *.node[*].helper.nCars 8
param *.node[*].helper.nLanes 1
param *.node[*].helper.platoonSize 8
param *.node[*].helper_type "\"PositionHelper\""
param *.node[*].mobility.x 0
param *.node[*].mobility.y 0
param *.node[*].mobility.z 1.895
param *.node[*].prot.attackStart 30s
param *.node[*].prot.attackerType 3
param *.node[*].prot.attackingNode 3
param *.node[*].prot.beaconingInterval 0.1s
param *.node[*].prot.fakeAcc "(3 == 4)"
param *.node[*].prot.fakePos "(3 == 2)"
param *.node[*].prot.fakeSpeed "(3 == 3)"
param *.node[*].prot.maliciousAcc "-30 mpss"
param *.node[*].prot.maliciousSpeed 0kmph
param *.node[*].prot.packetSize 200
param *.node[*].prot.priority 2
param *.node[*].prot.shiftX "7 m"
param *.node[*].prot.useControllerAcceleration true
param *.node[*].protocol_type "\"SimplePlatooningBeaconing\""
param *.node[*].scenario.accHeadway 0.1s
param *.node[*].scenario.caccC1 0.5
param *.node[*].scenario.caccOmegaN "0.2 Hz"
param *.node[*].scenario.caccSpacing 20m
param *.node[*].scenario.caccXi 1
param *.node[*].scenario.controller "\"CACC\""
param *.node[*].scenario.engineTau "0.5 s"
param *.node[*].scenario.leaderHeadway 1.2s
param *.node[*].scenario.leaderSpeed 150kmph
param *.node[*].scenario.ploegH 0.5s
param *.node[*].scenario.ploegKd 0.7
param *.node[*].scenario.ploegKp 0.2
param *.node[*].scenario.useRealisticEngine false
param *.node[*].scenario_type "\"SinusoidalScenario\""
param *.node[*].unicast.packetLossRate 0
param *.obstacles.debug false
param *.playgroundSizeX 65000m
param *.playgroundSizeY 25000m
param *.playgroundSizeZ 50m
param *.world.use2D false
param *.world.useTorus false

vector 0  scenario.node[0].appl  distance  ETV
vector 1  scenario.node[0].appl  relativeSpeed  ETV
vector 2  scenario.node[0].appl  nodeId  ETV
vector 6  scenario.node[0].appl  acceleration  ETV
vector 7  scenario.node[0].appl  controllerAcceleration  ETV
vector 3  scenario.node[0].appl  speed  ETV
vector 4  scenario.node[0].appl  posx  ETV
vector 5  scenario.node[0].appl  posy  ETV
vector 22  scenario.node[1].appl  distance  ETV
vector 23  scenario.node[1].appl  relativeSpeed  ETV
vector 24  scenario.node[1].appl  nodeId  ETV
vector 28  scenario.node[1].appl  acceleration  ETV
vector 29  scenario.node[1].appl  controllerAcceleration  ETV
vector 25  scenario.node[1].appl  speed  ETV
vector 26  scenario.node[1].appl  posx  ETV
vector 27  scenario.node[1].appl  posy  ETV
vector 44  scenario.node[2].appl  distance  ETV
vector 45  scenario.node[2].appl  relativeSpeed  ETV
vector 46  scenario.node[2].appl  nodeId  ETV
vector 50  scenario.node[2].appl  acceleration  ETV
vector 51  scenario.node[2].appl  controllerAcceleration  ETV
vector 47  scenario.node[2].appl  speed  ETV
vector 48  scenario.node[2].appl  posx  ETV
vector 49  scenario.node[2].appl  posy  ETV
vector 66  scenario.node[3].appl  distance  ETV
vector 67  scenario.node[3].appl  relativeSpeed  ETV
vector 68  scenario.node[3].appl  nodeId  ETV
vector 72  scenario.node[3].appl  acceleration  ETV
vector 73  scenario.node[3].appl  controllerAcceleration  ETV
vector 69  scenario.node[3].appl  speed  ETV
vector 70  scenario.node[3].appl  posx  ETV
vector 71  scenario.node[3].appl  posy  ETV
vector 88  scenario.node[4].appl  distance  ETV
vector 89  scenario.node[4].appl  relativeSpeed  ETV
vector 90  scenario.node[4].appl  nodeId  ETV
vector 94  scenario.node[4].appl  acceleration  ETV
vector 95  scenario.node[4].appl  controllerAcceleration  ETV
vector 91  scenario.node[4].appl  speed  ETV
vector 92  scenario.node[4].appl  posx  ETV
vector 93  scenario.node[4].appl  posy  ETV
vector 110  scenario.node[5].appl  distance  ETV
vector 111  scenario.node[5].appl  relativeSpeed  ETV
vector 112  scenario.node[5].appl  nodeId  ETV
vector 116  scenario.node[5].appl  acceleration  ETV
vector 117  scenario.node[5].appl  controllerAcceleration  ETV
vector 113  scenario.node[5].appl  speed  ETV
vector 114  scenario.node[5].appl  posx  ETV
vector 115  scenario.node[5].appl  posy  ETV
vector 132  scenario.node[6].appl  distance  ETV
vector 133  scenario.node[6].appl  relativeSpeed  ETV
vector 134  scenario.node[6].appl  nodeId  ETV
vector 138  scenario.node[6].appl  acceleration  ETV
vector 139  scenario.node[6].appl  controllerAcceleration  ETV
vector 135  scenario.node[6].appl  speed  ETV
vector 136  scenario.node[6].appl  posx  ETV
vector 137  scenario.node[6].appl  posy  ETV
vector 154  scenario.node[7].appl  distance  ETV
vector 155  scenario.node[7].appl  relativeSpeed  ETV
vector 156  scenario.node[7].appl  nodeId  ETV
vector 160  scenario.node[7].appl  acceleration  ETV
vector 161  scenario.node[7].appl  controllerAcceleration  ETV
vector 157  scenario.node[7].appl  speed  ETV
vector 158  scenario.node[7].appl  posx  ETV
vector 159  scenario.node[7].appl  posy  ETV
vector 102  scenario.node[4].prot  frontDelay  ETV
vector 100  scenario.node[4].prot  frontDelayId  ETV
vector 35  scenario.node[1].prot  leaderDelay  ETV
vector 33  scenario.node[1].prot  leaderDelayId  ETV
vector 36  scenario.node[1].prot  frontDelay  ETV
vector 34  scenario.node[1].prot  frontDelayId  ETV
vector 57  scenario.node[2].prot  leaderDelay  ETV
vector 55  scenario.node[2].prot  leaderDelayId  ETV
vector 79  scenario.node[3].prot  leaderDelay  ETV
vector 77  scenario.node[3].prot  leaderDelayId  ETV
vector 101  scenario.node[4].prot  leaderDelay  ETV
vector 99  scenario.node[4].prot  leaderDelayId  ETV
vector 123  scenario.node[5].prot  leaderDelay  ETV
vector 121  scenario.node[5].prot  leaderDelayId  ETV
vector 145  scenario.node[6].prot  leaderDelay  ETV
vector 143  scenario.node[6].prot  leaderDelayId  ETV
vector 167  scenario.node[7].prot  leaderDelay  ETV
vector 165  scenario.node[7].prot  leaderDelayId  ETV
vector 80  scenario.node[3].prot  frontDelay  ETV
vector 78  scenario.node[3].prot  frontDelayId  ETV
vector 146  scenario.node[6].prot  frontDelay  ETV
vector 144  scenario.node[6].prot  frontDelayId  ETV
vector 58  scenario.node[2].prot  frontDelay  ETV
vector 56  scenario.node[2].prot  frontDelayId  ETV
vector 124  scenario.node[5].prot  frontDelay  ETV
vector 122  scenario.node[5].prot  frontDelayId  ETV
vector 168  scenario.node[7].prot  frontDelay  ETV
vector 166  scenario.node[7].prot  frontDelayId  ETV
vector 8  scenario.node[0].prot  nodeId  ETV
vector 9  scenario.node[0].prot  busyTime  ETV
vector 10  scenario.node[0].prot  collisions  ETV
vector 30  scenario.node[1].prot  nodeId  ETV
vector 31  scenario.node[1].prot  busyTime  ETV
vector 32  scenario.node[1].prot  collisions  ETV
vector 52  scenario.node[2].prot  nodeId  ETV
vector 53  scenario.node[2].prot  busyTime  ETV
vector 54  scenario.node[2].prot  collisions  ETV
vector 74  scenario.node[3].prot  nodeId  ETV
vector 75  scenario.node[3].prot  busyTime  ETV
vector 76  scenario.node[3].prot  collisions  ETV
vector 96  scenario.node[4].prot  nodeId  ETV
vector 97  scenario.node[4].prot  busyTime  ETV
vector 98  scenario.node[4].prot  collisions  ETV
vector 118  scenario.node[5].prot  nodeId  ETV
vector 119  scenario.node[5].prot  busyTime  ETV
vector 120  scenario.node[5].prot  collisions  ETV
vector 140  scenario.node[6].prot  nodeId  ETV
vector 141  scenario.node[6].prot  busyTime  ETV
vector 142  scenario.node[6].prot  collisions  ETV
vector 162  scenario.node[7].prot  nodeId  ETV
vector 163  scenario.node[7].prot  busyTime  ETV
vector 164  scenario.node[7].prot  collisions  ETV
7	11089 7762 232 181475 1.11 33.61 326 -1.5 1.5 -2.7539854477019 518.5598403155
6	18851 10230 232 181475 1.11 33.61 326 -1.4722746794739 1.4513407705138 4.0109481264921 344.57829336016
5	29081 6558 232 181475 1.11 33.61 326 36.55 36.55 11915.3 435504.215
4	35639 9794 232 181475 1.11 33.61 326 218.44185905417 1577.5076655269 292970.59033514 313693408.2612
3	45433 9767 232 181475 1.11 33.61 326 40.376926150007 43.631381416411 13632.474810054 570314.74168462
1	55200 5254 232 181475 1.11 33.61 326 0 0 0 0
0	60454 5580 232 181475 1.11 33.61 326 -1 -1 -326 326
2	66034 5254 232 181475 1.11 33.61 326 0 0 0 0
10	71288 454 5234 178122 2 33 32 0 0 0 0
9	71742 615 5234 178122 2 33 32 0.023625 0.02625 0.837375 0.021919078125
8	72357 422 5234 178122 2 33 32 0 0 0 0
29	72779 9970 233 181476 1.11 33.61 326 -1.5022740557198 1.5017241001272 -1.3891175971098 513.9055343017
28	82749 10538 233 181476 1.11 33.61 326 -1.4793271055183 1.4491063996864 4.6569112428685 343.41271621961
27	93287 6884 233 181476 1.11 33.61 326 36.55 36.55 11915.3 435504.215
26	100171 10108 233 181476 1.11 33.61 326 194.44185905457 1553.4499100613 285141.1380154 299807108.02879
25	110279 10104 233 181476 1.11 33.61 326 40.376602337142 43.632935310277 13631.919943989 570268.65240894
23	120383 11051 233 181476 1.11 33.61 326 -0.062041779756484 0.062927524299965 0.51475658395822 0.61364509527546
22	131434 10105 233 181476 1.11 33.61 326 19.934067041531 20.098814988228 6525.4412224111 130618.41699289
24	141539 5580 233 181476 1.11 33.61 326 1 1 326 326
36	147119 12953 964 181651 1.241824401662 33.641827441996 325 0.099999759794 0.100012926809 32.500002801553 3.2500005613093
35	160072 12953 964 181651 1.241824401662 33.641827441996 325 0.099999759794 0.100012926809 32.500002801553 3.2500005613093
34	173025 8768 964 181651 1.241824401662 33.641827441996 325 1 1 325 325
33	181793 8768 964 181651 1.241824401662 33.641827441996 325 1 1 325 325
32	190561 454 5235 178123 2 33 32 0 0 0 0
31	191015 647 5235 178123 2 33 32 0.023625 0.02625 0.837375 0.021919078125
30	191662 454 5235 178123 2 33 32 1 1 32 32
51	192116 10162 234 181477 1.11 33.61 326 -1.515739459891 1.5126010685353 -1.7621798117943 518.23743943078
50	202278 10540 234 181477 1.11 33.61 326 -1.4731702669735 1.4434762629406 4.8865093183338 341.02202359774
49	212818 6884 234 181477 1.11 33.61 326 36.55 36.55 11915.3 435504.215
48	219702 10107 234 181477 1.11 33.61 326 170.44185905457 1529.4302652781 277315.92872667 286306216.53329
47	229809 10116 234 181477 1.11 33.61 326 40.378428751727 43.626244762177 13631.731580705 570251.48630987
45	239925 11158 234 181477 1.11 33.61 326 -0.017729423758816 0.015851883069203 0.14179417177286 0.031853766085057
44	251083 10104 234 181477 1.11 33.61 326 19.972823043039 20.042588123035 6521.2055214656 130448.32434368
46	261187 5580 234 181477 1.11 33.61 326 2 2 652 1304
58	266767 12951 1176 181300 1.281934122161 33.581937349836 324 0.099999759788 0.100012789222 32.400002988894 3.2400005987738
57	279718 12959 970 181657 1.241824481718 33.641827522115 325 0.099999759794 0.100012926804 32.500002801616 3.2500005613219
56	292677 8764 1176 181300 1.281934122161 33.581937349836 324 2 2 648 1296
55	301441 8769 970 181657 1.241824481718 33.641827522115 325 2 2 650 1300
54	310210 454 5236 178124 2 33 32 0 0 0 0
53	310664 647 5236 178124 2 33 32 0.023625 0.02625 0.837375 0.021919078125
52	311311 454 5236 178124 2 33 32 2 2 64 128
73	311765 10515 235 181478 1.11 33.61 326 -1.4979584877477 1.4963276130332 -1.2973030594251 506.41371180256
72	322280 10555 235 181478 1.11 33.61 326 -1.4632764912697 1.4357843220992 5.0168526411504 335.97798695506
71	332835 6884 235 181478 1.11 33.61 326 36.55 36.55 11915.3 435504.215
70	339719 10107 235 181478 1.11 33.61 326 146.44186668396 1505.4264221432 269493.07591559 273186286.77281
69	349826 10112 235 181478 1.11 33.61 326 40.387325075076 43.618106131484 13631.697471153 570245.49265876
67	359938 11212 235 181478 1.11 33.61 326 -0.015485115986692 0.01153880836609 -0.014755541493734 0.015369108970349
66	371150 10107 235 181478 1.11 33.61 326 19.970461244214 20.035617327715 6518.8521288955 130354.16437252
68	381257 5580 235 181478 1.11 33.61 326 3 3 978 2934
80	386837 12973 1040 181721 1.262751561773 33.662754602181 325 0.099999759792 0.100012763184 32.500002801627 3.2500005613199
79	399810 12962 976 181663 1.241824561773 33.641827602182 325 0.099999759793 0.100012926803 32.500002801628 3.2500005613243
78	412772 8773 1040 181721 1.262751561773 33.662754602181 325 3 3 975 2925
77	421545 8774 976 181663 1.241824561773 33.641827602182 325 3 3 975 2925
76	430319 454 5237 178125 2 33 32 0 0 0 0
75	430773 647 5237 178125 2 33 32 0.023625 0.02625 0.837375 0.021919078125
74	431420 454 5237 178125 2 33 32 3 3 96 288
95	431874 10512 236 181479 1.11 33.61 326 -11.077725948777 1.4916957487663 -248.97919120399 2138.0092574111
94	442386 10555 236 181479 1.11 33.61 326 -8.036530516317 1.4323587546464 -229.35182608283 1679.9837485299
93	452941 6884 236 181479 1.11 33.61 326 36.55 36.55 11915.3 435504.215
92	459825 10114 236 181479 1.11 33.61 326 122.44186668396 1436.5465746779 261123.12058671 258875435.02232
91	469939 10112 236 181479 1.11 33.61 326 18.928389694486 43.616107683445 13174.719174626 539427.03802937
89	480051 10980 236 181479 1.11 33.61 326 -0.026047778893933 23.309299261708 456.92812800089 7891.8763432236
88	491031 10095 236 181479 1.11 33.61 326 19.957670108008 64.41390857039 7056.8157629404 166920.25727293
90	501126 5580 236 181479 1.11 33.61 326 4 4 1304 5216
102	506706 13302 904 181597 1.240527161496 33.640530353427 325 0.09999975978 0.100012763147 32.50000295315 3.2500005916245
101	520008 13298 982 181669 1.241824641829 33.641827834281 325 0.099999759794 0.100012934099 32.500002953671 3.2500005917331
100	533306 9099 904 181597 1.240527161496 33.640530353427 325 4 4 1300 5200
99	542405 8776 982 181669 1.241824641829 33.641827834281 325 4 4 1300 5200
98	551181 454 5238 178126 2 33 32 0 0 0 0
97	551635 647 5238 178126 2 33 32 0.023625 0.02625 0.837375 0.021919078125
96	552282 454 5238 178126 2 33 32 4 4 128 512
139	552736 10847 238 181481 1.11 33.61 326 -4.448586815348 1.489129285795 -107.32541506048 732.18418744318
138	563583 10891 238 181481 1.11 33.61 326 -4.0487759751706 1.4233536802507 -86.20574048898 491.92529253071
137	574474 7210 238 181481 1.11 33.61 326 36.55 36.55 11915.3 435504.215
136	581684 10438 238 181481 1.11 33.61 326 74.44186668396 1419.5736213557 245872.88691027 235656280.77262
135	592122 10432 238 181481 1.11 33.61 326 33.233670619375 43.601859386286 13489.999408086 559074.98349533
133	602554 11347 238 181481 1.11 33.61 326 -5.7023871440292 0.018894223368456 -115.35069879179 497.21029356551
132	613901 10422 238 181481 1.11 33.61 326 8.6375087338579 20.013796501852 6380.0164409679 125805.93127993
134	624323 5906 238 181481 1.11 33.61 326 6 6 1956 11736
146	630229 13311 1106 181793 1.266713801939 33.666703890075 325 0.099999759788 0.100012761861 32.499989849355 3.2499979707026
145	643540 13306 994 181681 1.241824801939 33.641827889465 325 0.099999759788 0.100012929412 32.500002848745 3.2500005707478
144	656846 9109 1106 181793 1.266713801939 33.666703890075 325 6 6 1950 11700
143	665955 9107 994 181681 1.241824801939 33.641827889465 325 6 6 1950 11700
142	675062 486 5240 178128 2 33 32 0 0 0 0
141	675548 679 5240 178128 2 33 32 0.023625 0.02625 0.837375 0.021919078125
140	676227 486 5240 178128 2 33 32 6 6 192 1152
161	676713 10864 239 181482 1.11 33.61 326 -3.6272222013096 1.4965424010475 -68.131755408046 604.43839701275
160	687577 10924 239 181482 1.11 33.61 326 -3.308549678686 1.427889123952 -49.913415898135 383.64323893094
159	698501 7210 239 181482 1.11 33.61 326 36.55 36.55 11915.3 435504.215
158	705711 10434 239 181482 1.11 33.61 326 50.44186668396 1401.7311399945 238118.97154853 224234046.43763
157	716145 10432 239 181482 1.11 33.61 326 36.825086635409 43.606419142501 13552.838175957 563826.14012455
155	726577 11325 239 181482 1.11 33.61 326 -3.5509282562828 0.034197066618979 -61.976710466882 156.6281912875
154	737902 10410 239 181482 1.11 33.61 326 13.914309681569 20.020493075561 6451.1721370905 127907.7446599
156	748312 5906 239 181482 1.11 33.61 326 7 7 2282 15974
168	754218 13279 1308 181444 1.289468522438 33.589471775256 324 0.099999759782 0.100012780622 32.400003014037 3.2400006038022
167	767497 13294 1000 181687 1.241824881995 33.64182794862 325 0.099999759789 0.100012928324 32.500002827844 3.2500005665676
166	780791 9091 1308 181444 1.289468522438 33.589471775256 324 7 7 2268 15876
165	789882 9106 1000 181687 1.241824881995 33.64182794862 325 7 7 2275 15925
164	798988 486 5241 178129 2 33 32 0 0 0 0
163	799474 679 5241 178129 2 33 32 0.023625 0.02625 0.837375 0.021919078125
162	800153 486 5241 178129 2 33 32 7 7 224 1568
110	800639 10446 237 181825 1.11 33.67 327 0 20.024425875536 6268.5228401496 123474.60311175
111	811085 11346 237 181825 1.11 33.67 327 -8.5536706346407 0.034107718543055 -204.68541975511 1449.965732357
112	822431 5925 237 181825 1.11 33.67 327 5 5 1635 8175
113	828356 10475 237 181825 1.11 33.67 327 27.214470513233 43.609944174317 13400.424647273 551738.93721043
114	838831 10480 237 181825 1.11 33.67 327 98.44186668396 1433.7330967939 254988.3006634 249299596.87093
115	849311 7233 237 181825 1.11 33.67 327 36.55 36.55 11951.85 436840.1175
116	856544 10912 237 181825 1.11 33.67 327 -4.7244132218392 1.4281996034654 -148.34740857529 826.14428670782
117	867456 10879 237 181825 1.11 33.67 327 -5.2877133082498 1.4979373561971 -173.40341689718 1128.347907358
118	878335 486 5239 178127 2 33 32 5 5 160 800
119	878821 679 5239 178127 2 33 32 0.023625 0.02625 0.837375 0.021919078125
120	879500 486 5239 178127 2 33 32 0 0 0 0
121	879986 9107 988 181675 1.241824721884 33.641827848271 325 5 5 1625 8125
122	889093 9071 1242 181366 1.287391362327 33.587394673035 324 5 5 1620 8100
123	898164 13294 988 181675 1.241824721884 33.641827848271 325 0.099999759791 0.100012931238 32.500002887606 3.25000057852
124	911458 13260 1242 181366 1.287391362327 33.587394673035 324 0.099999759784 0.100012762958 32.400003071927 3.2400006153799
