file 1680319 1512142031                                         
version 2
run SinusoidalSpeedInjectionAttack-129-20171201-16:26:42-75855
attr CACCSpacing 20
attr attackAcc -30
attr attackPos 7
attr attackSpeed 50
attr attackStart 30
attr attacker 3
attr beaconInterval 0.1
attr configname SinusoidalSpeedInjectionAttack
attr controller 1
attr datetime 20171201-16:26:42
attr experiment SinusoidalSpeedInjectionAttack
attr fakeAcc "(3 == 4)"
attr fakePos "(3 == 2)"
attr fakeSpeed "(3 == 3)"
attr inifile omnetpp_129.ini
attr iterationvars "$attacker=3, $attackSpeed=50, $attackPos=7, $attackAcc=-30, $leaderSpeed=50, $controller=1, $CACCSpacing=20, $sController=\"CACC\", $attackStart=30, $0=20, $1=0, $nCars=8, $platoonSize=8, $nLanes=1, $beaconInterval=0.1, $priority=2, $packetSize=200, $ploegH=0.5, $leaderHeadway=1.2, $fakeSpeed=(3 == 3), $fakeAcc=(3 == 4), $fakePos=(3 == 2)"
attr iterationvarsf attacker=3,attackSpeed=50,attackPos=7,attackAcc=-30,leaderSpeed=50,controller=1,CACCSpacing=20,sController=CACC,attackStart=30,20,0,nCars=8,platoonSize=8,nLanes=1,beaconInterval=0.1,priority=2,packetSize=200,ploegH=0.5,leaderHeadway=1.2,fakeSpeed=(3_==_3),fakeAcc=(3_==_4),fakePos=(3_==_2)-
attr leaderHeadway 1.2
attr leaderSpeed 50
attr measurement "$attacker=3, $attackSpeed=50, $attackPos=7, $attackAcc=-30, $leaderSpeed=50, $controller=1, $CACCSpacing=20, $sController=\"CACC\", $attackStart=30, $0=20, $1=0, $nCars=8, $platoonSize=8, $nLanes=1, $beaconInterval=0.1, $priority=2, $packetSize=200, $ploegH=0.5, $leaderHeadway=1.2, $fakeSpeed=(3 == 3), $fakeAcc=(3 == 4), $fakePos=(3 == 2)"
attr nCars 8
attr nLanes 1
attr network scenario
attr packetSize 200
attr platoonSize 8
attr ploegH 0.5
attr priority 2
attr processid 75855
attr repetition 4
attr replication #4
attr resultdir results
attr runnumber 129
attr sController "\"CACC\""
attr seedset 4
param **.coreDebug false
param **.debug false
param **.headway 0.1s
param **.numberOfCars 8
param **.numberOfCarsPerPlatoon 8
param **.numberOfLanes 1
param **.numericController 1
param **.traffic.nCars 8
param **.traffic.nLanes 1
param **.traffic.platoonInsertDistance 20m
param **.traffic.platoonInsertHeadway 0s
param **.traffic.platoonInsertSpeed 50kmph
param **.traffic.platoonInsertTime "1 s"
param **.traffic.platoonLeaderHeadway 1.2s
param **.traffic.platoonSize 8
param **.traffic.platooningVType "\"vtypeauto\""
param **.traffic_type "\"PlatoonsTrafficManager\""
param *.**.nic.mac1609_4.bitrate 6Mbps
param *.**.nic.mac1609_4.txPower 100mW
param *.**.nic.mac1609_4.useServiceChannel false
param *.**.nic.phy80211p.analogueModels "xmldoc(\"config.xml\")"
param *.**.nic.phy80211p.decider "xmldoc(\"config.xml\")"
param *.**.nic.phy80211p.maxTXPower 100mW
param *.**.nic.phy80211p.sensitivity -94dBm
param *.**.nic.phy80211p.thermalNoise -95dBm
param *.**.nic.phy80211p.usePropagationDelay true
param *.**.nic.phy80211p.useThermalNoise true
param *.annotations.draw false
param *.connectionManager.alpha 2.0
param *.connectionManager.carrierFrequency "5.890e9 Hz"
param *.connectionManager.pMax 100mW
param *.connectionManager.sat -94dBm
param *.connectionManager.sendDirect true
param *.manager.autoShutdown true
param *.manager.commandLine "\"sumo --remote-port $port --seed $seed --configuration-file $configFile\""
param *.manager.configFile "\"./sumocfg/freeway.sumo.cfg\""
param *.manager.host "\"localhost\""
param *.manager.margin 25
param *.manager.moduleDisplayString "\"\""
param *.manager.moduleName "\"node\""
param *.manager.moduleType "\"Car\""
param *.manager.updateInterval 0.01s
param *.node[*].appl.attackStart 30s
param *.node[*].appl.attackerType 3
param *.node[*].appl.simulationDuration "60 s"
param *.node[*].appl_type "\"SimplePlatooningApp\""
param *.node[*].helper.nCars 8
param *.node[*].helper.nLanes 1
param *.node[*].helper.platoonSize 8
param *.node[*].helper_type "\"PositionHelper\""
param *.node[*].mobility.x 0
param *.node[*].mobility.y 0
param *.node[*].mobility.z 1.895
param *.node[*].prot.attackStart 30s
param *.node[*].prot.attackerType 3
param *.node[*].prot.attackingNode 3
param *.node[*].prot.beaconingInterval 0.1s
param *.node[*].prot.fakeAcc "(3 == 4)"
param *.node[*].prot.fakePos "(3 == 2)"
param *.node[*].prot.fakeSpeed "(3 == 3)"
param *.node[*].prot.maliciousAcc "-30 mpss"
param *.node[*].prot.maliciousSpeed 50kmph
param *.node[*].prot.packetSize 200
param *.node[*].prot.priority 2
param *.node[*].prot.shiftX "7 m"
param *.node[*].prot.useControllerAcceleration true
param *.node[*].protocol_type "\"SimplePlatooningBeaconing\""
param *.node[*].scenario.accHeadway 0.1s
param *.node[*].scenario.caccC1 0.5
param *.node[*].scenario.caccOmegaN "0.2 Hz"
param *.node[*].scenario.caccSpacing 20m
param *.node[*].scenario.caccXi 1
param *.node[*].scenario.controller "\"CACC\""
param *.node[*].scenario.engineTau "0.5 s"
param *.node[*].scenario.leaderHeadway 1.2s
param *.node[*].scenario.leaderSpeed 50kmph
param *.node[*].scenario.ploegH 0.5s
param *.node[*].scenario.ploegKd 0.7
param *.node[*].scenario.ploegKp 0.2
param *.node[*].scenario.useRealisticEngine false
param *.node[*].scenario_type "\"SinusoidalScenario\""
param *.node[*].unicast.packetLossRate 0
param *.obstacles.debug false
param *.playgroundSizeX 65000m
param *.playgroundSizeY 25000m
param *.playgroundSizeZ 50m
param *.world.use2D false
param *.world.useTorus false

vector 0  scenario.node[0].appl  distance  ETV
vector 1  scenario.node[0].appl  relativeSpeed  ETV
vector 2  scenario.node[0].appl  nodeId  ETV
vector 6  scenario.node[0].appl  acceleration  ETV
vector 7  scenario.node[0].appl  controllerAcceleration  ETV
vector 3  scenario.node[0].appl  speed  ETV
vector 4  scenario.node[0].appl  posx  ETV
vector 5  scenario.node[0].appl  posy  ETV
vector 22  scenario.node[1].appl  distance  ETV
vector 23  scenario.node[1].appl  relativeSpeed  ETV
vector 24  scenario.node[1].appl  nodeId  ETV
vector 28  scenario.node[1].appl  acceleration  ETV
vector 29  scenario.node[1].appl  controllerAcceleration  ETV
vector 25  scenario.node[1].appl  speed  ETV
vector 26  scenario.node[1].appl  posx  ETV
vector 27  scenario.node[1].appl  posy  ETV
vector 44  scenario.node[2].appl  distance  ETV
vector 45  scenario.node[2].appl  relativeSpeed  ETV
vector 46  scenario.node[2].appl  nodeId  ETV
vector 50  scenario.node[2].appl  acceleration  ETV
vector 51  scenario.node[2].appl  controllerAcceleration  ETV
vector 47  scenario.node[2].appl  speed  ETV
vector 48  scenario.node[2].appl  posx  ETV
vector 49  scenario.node[2].appl  posy  ETV
vector 66  scenario.node[3].appl  distance  ETV
vector 67  scenario.node[3].appl  relativeSpeed  ETV
vector 68  scenario.node[3].appl  nodeId  ETV
vector 72  scenario.node[3].appl  acceleration  ETV
vector 73  scenario.node[3].appl  controllerAcceleration  ETV
vector 69  scenario.node[3].appl  speed  ETV
vector 70  scenario.node[3].appl  posx  ETV
vector 71  scenario.node[3].appl  posy  ETV
vector 88  scenario.node[4].appl  distance  ETV
vector 89  scenario.node[4].appl  relativeSpeed  ETV
vector 90  scenario.node[4].appl  nodeId  ETV
vector 94  scenario.node[4].appl  acceleration  ETV
vector 95  scenario.node[4].appl  controllerAcceleration  ETV
vector 91  scenario.node[4].appl  speed  ETV
vector 92  scenario.node[4].appl  posx  ETV
vector 93  scenario.node[4].appl  posy  ETV
vector 110  scenario.node[5].appl  distance  ETV
vector 111  scenario.node[5].appl  relativeSpeed  ETV
vector 112  scenario.node[5].appl  nodeId  ETV
vector 116  scenario.node[5].appl  acceleration  ETV
vector 117  scenario.node[5].appl  controllerAcceleration  ETV
vector 113  scenario.node[5].appl  speed  ETV
vector 114  scenario.node[5].appl  posx  ETV
vector 115  scenario.node[5].appl  posy  ETV
vector 132  scenario.node[6].appl  distance  ETV
vector 133  scenario.node[6].appl  relativeSpeed  ETV
vector 134  scenario.node[6].appl  nodeId  ETV
vector 138  scenario.node[6].appl  acceleration  ETV
vector 139  scenario.node[6].appl  controllerAcceleration  ETV
vector 135  scenario.node[6].appl  speed  ETV
vector 136  scenario.node[6].appl  posx  ETV
vector 137  scenario.node[6].appl  posy  ETV
vector 154  scenario.node[7].appl  distance  ETV
vector 155  scenario.node[7].appl  relativeSpeed  ETV
vector 156  scenario.node[7].appl  nodeId  ETV
vector 160  scenario.node[7].appl  acceleration  ETV
vector 161  scenario.node[7].appl  controllerAcceleration  ETV
vector 157  scenario.node[7].appl  speed  ETV
vector 158  scenario.node[7].appl  posx  ETV
vector 159  scenario.node[7].appl  posy  ETV
vector 102  scenario.node[4].prot  frontDelay  ETV
vector 100  scenario.node[4].prot  frontDelayId  ETV
vector 35  scenario.node[1].prot  leaderDelay  ETV
vector 33  scenario.node[1].prot  leaderDelayId  ETV
vector 36  scenario.node[1].prot  frontDelay  ETV
vector 34  scenario.node[1].prot  frontDelayId  ETV
vector 57  scenario.node[2].prot  leaderDelay  ETV
vector 55  scenario.node[2].prot  leaderDelayId  ETV
vector 79  scenario.node[3].prot  leaderDelay  ETV
vector 77  scenario.node[3].prot  leaderDelayId  ETV
vector 101  scenario.node[4].prot  leaderDelay  ETV
vector 99  scenario.node[4].prot  leaderDelayId  ETV
vector 123  scenario.node[5].prot  leaderDelay  ETV
vector 121  scenario.node[5].prot  leaderDelayId  ETV
vector 145  scenario.node[6].prot  leaderDelay  ETV
vector 143  scenario.node[6].prot  leaderDelayId  ETV
vector 167  scenario.node[7].prot  leaderDelay  ETV
vector 165  scenario.node[7].prot  leaderDelayId  ETV
vector 80  scenario.node[3].prot  frontDelay  ETV
vector 78  scenario.node[3].prot  frontDelayId  ETV
vector 146  scenario.node[6].prot  frontDelay  ETV
vector 144  scenario.node[6].prot  frontDelayId  ETV
vector 58  scenario.node[2].prot  frontDelay  ETV
vector 56  scenario.node[2].prot  frontDelayId  ETV
vector 124  scenario.node[5].prot  frontDelay  ETV
vector 122  scenario.node[5].prot  frontDelayId  ETV
vector 168  scenario.node[7].prot  frontDelay  ETV
vector 166  scenario.node[7].prot  frontDelayId  ETV
vector 8  scenario.node[0].prot  nodeId  ETV
vector 9  scenario.node[0].prot  busyTime  ETV
vector 10  scenario.node[0].prot  collisions  ETV
vector 30  scenario.node[1].prot  nodeId  ETV
vector 31  scenario.node[1].prot  busyTime  ETV
vector 32  scenario.node[1].prot  collisions  ETV
vector 52  scenario.node[2].prot  nodeId  ETV
vector 53  scenario.node[2].prot  busyTime  ETV
vector 54  scenario.node[2].prot  collisions  ETV
vector 74  scenario.node[3].prot  nodeId  ETV
vector 75  scenario.node[3].prot  busyTime  ETV
vector 76  scenario.node[3].prot  collisions  ETV
vector 96  scenario.node[4].prot  nodeId  ETV
vector 97  scenario.node[4].prot  busyTime  ETV
vector 98  scenario.node[4].prot  collisions  ETV
vector 118  scenario.node[5].prot  nodeId  ETV
vector 119  scenario.node[5].prot  busyTime  ETV
vector 120  scenario.node[5].prot  collisions  ETV
vector 140  scenario.node[6].prot  nodeId  ETV
vector 141  scenario.node[6].prot  busyTime  ETV
vector 142  scenario.node[6].prot  collisions  ETV
vector 162  scenario.node[7].prot  nodeId  ETV
vector 163  scenario.node[7].prot  busyTime  ETV
vector 164  scenario.node[7].prot  collisions  ETV
7	11086 13860 232 328174 1.11 59.91 589 -1.5 1.5 -14.445969899918 993.24092361736
6	24946 18587 232 328174 1.11 59.91 589 -1.472274679513 1.4513434175798 -12.507264912644 675.29835211523
5	43533 12081 232 328174 1.11 59.91 589 36.55 36.55 21527.95 786846.5725
4	55614 17905 232 328174 1.11 59.91 589 215.66408119188 1036.6468796898 369625.34695954 265005705.66783
3	73519 17901 232 328174 1.11 59.91 589 12.599076970844 15.853603639796 8223.2832500118 115251.79065057
1	91420 9725 232 328174 1.11 59.91 589 0 0 0 0
0	101145 10314 232 328174 1.11 59.91 589 -1 -1 -589 589
2	111459 9725 232 328174 1.11 59.91 589 0 0 0 0
10	121184 859 5234 328728 2 60 59 0 0 0 0
9	122043 1155 5234 328728 2 60 59 0.023625 0.02625 1.546125 0.040523765625
8	123198 800 5234 328728 2 60 59 0 0 0 0
29	123998 17862 233 328175 1.11 59.91 589 -1.5022740555057 1.5017240992908 -14.809043994996 987.50351688457
28	141860 19174 233 328175 1.11 59.91 589 -1.4793271049111 1.4491063994006 -12.221341166247 673.78414335254
27	161034 12670 233 328175 1.11 59.91 589 36.55 36.55 21527.95 786846.5725
26	173704 18503 233 328175 1.11 59.91 589 191.66408119202 1012.6525125318 355471.75283183 247576942.26216
25	192207 18506 233 328175 1.11 59.91 589 12.598824561334 15.855157541096 8223.3506409948 115252.80812285
23	210713 20118 233 328175 1.11 59.91 589 -0.062041790475234 0.063261405576529 0.057681666055968 1.2031950520635
22	230831 18502 233 328175 1.11 59.91 589 19.934067099263 20.123785057243 11797.595475524 236305.71869564
24	249333 10314 233 328175 1.11 59.91 589 1 1 589 589
36	259647 23687 964 328350 1.241824401662 59.941817341376 588 0.099999759794 0.10001278042 58.799992700933 5.8799985418478
35	283334 23687 964 328350 1.241824401662 59.941817341376 588 0.099999759794 0.10001278042 58.799992700933 5.8799985418478
34	307021 16109 964 328350 1.241824401662 59.941817341376 588 1 1 588 588
33	323130 16109 964 328350 1.241824401662 59.941817341376 588 1 1 588 588
32	339239 859 5235 328729 2 60 59 0 0 0 0
31	340098 1214 5235 328729 2 60 59 0.023625 0.02625 1.546125 0.040523765625
30	341312 859 5235 328729 2 60 59 1 1 59 59
51	342171 18173 234 328176 1.11 59.91 589 -1.5157394580029 1.5126010673939 -15.948767841822 995.29303512332
50	360344 19182 234 328176 1.11 59.91 589 -1.4731702643866 1.4434762622948 -12.051138645968 669.67352635052
49	379526 12670 234 328176 1.11 59.91 589 36.55 36.55 21527.95 786846.5725
48	392196 18512 234 328176 1.11 59.91 589 167.66408119202 988.65280008298 341330.75753491 230846236.22142
47	410708 18489 234 328176 1.11 59.91 589 12.600650976202 15.848466989387 8223.3601540719 115250.19850315
45	429197 20324 234 328176 1.11 59.91 589 -0.01772942574723 0.015851881017262 0.11270033461748 0.060652351411045
44	449521 18482 234 328176 1.11 59.91 589 19.97282310467 20.044744098236 11784.995487189 235800.05739665
46	468003 10314 234 328176 1.11 59.91 589 2 2 1178 2356
58	478317 23722 1176 328562 1.281934122161 59.981940073712 588 0.099999759788 0.100012783055 58.80000571277 5.8800011443784
57	502039 23694 970 328356 1.241824481718 59.941817421429 588 0.099999759794 0.100012780419 58.79999270093 5.8799985418472
56	525733 16127 1176 328562 1.281934122161 59.981940073712 588 2 2 1176 2352
55	541860 16103 970 328356 1.241824481718 59.941817421429 588 2 2 1176 2352
54	557963 859 5236 328730 2 60 59 0 0 0 0
53	558822 1214 5236 328730 2 60 59 0.023625 0.02625 1.546125 0.040523765625
52	560036 859 5236 328730 2 60 59 2 2 118 236
73	560895 19095 235 328177 1.11 59.91 589 -1.4979584843299 1.4963276239402 -15.539918581075 974.15226001878
72	579990 19193 235 328177 1.11 59.91 589 -1.463276487034 1.4357843210334 -11.868129650843 660.49499357954
71	599183 12670 235 328177 1.11 59.91 589 36.55 36.55 21527.95 786846.5725
70	611853 18493 235 328177 1.11 59.91 589 143.66408882141 964.67369382646 327198.08270044 214806337.25729
69	630346 18486 235 328177 1.11 59.91 589 12.609547301505 15.840328354588 8223.5752789616 115250.41338678
67	648832 20499 235 328177 1.11 59.91 589 -0.015485116012533 0.011538813806665 -0.094613503288794 0.026680488052703
66	669331 18494 235 328177 1.11 59.91 589 19.970461291019 20.035617410594 11776.679136959 235467.30102265
68	687825 10314 235 328177 1.11 59.91 589 3 3 1767 5301
80	698139 23686 1040 328420 1.262751561773 59.962757501412 588 0.099999759792 0.100012783142 58.800005700858 5.8800011419959
79	721825 23676 976 328362 1.241824561773 59.941817501413 588 0.099999759793 0.100012780416 58.799992700859 5.879998541833
78	745501 16104 1040 328420 1.262751561773 59.962757501412 588 3 3 1764 5292
77	761605 16106 976 328362 1.241824561773 59.941817501413 588 3 3 1764 5292
76	777711 859 5237 328731 2 60 59 0 0 0 0
75	778570 1214 5237 328731 2 60 59 0.023625 0.02625 1.546125 0.040523765625
74	779784 859 5237 328731 2 60 59 3 3 177 531
95	780643 18305 236 328178 1.11 59.91 589 -1.8982948135419 1.9001487554321 -14.827556989256 1007.6420003305
94	798948 19175 236 328178 1.11 59.91 589 -1.5135331432971 1.4678930955297 -12.713617553748 688.72354241223
93	818123 12670 236 328178 1.11 59.91 589 36.55 36.55 21527.95 786846.5725
92	830793 18511 236 328178 1.11 59.91 589 119.66408882141 938.77021477409 312828.41083392 199044804.10029
91	849304 18501 236 328178 1.11 59.91 589 12.457397814828 15.838329897997 8204.5091332113 114739.82204545
89	867805 19927 236 328178 1.11 59.91 589 -0.25074629387773 0.32628796498976 19.184827046826 7.61285278995
88	887732 18475 236 328178 1.11 59.91 589 19.553774140379 21.901595387704 12013.290543608 245288.78092413
90	906207 10314 236 328178 1.11 59.91 589 4 4 2356 9424
102	916521 24276 904 328290 1.240527161496 59.940533107686 588 0.09999975978 0.100012782797 58.800005707409 5.8800011433061
101	940797 24287 982 328368 1.241824641829 59.941817587827 588 0.099999759794 0.100012780429 58.799992707217 5.8799985431046
100	965084 16696 904 328290 1.240527161496 59.940533107686 588 4 4 2352 9408
99	981780 16107 982 328368 1.241824641829 59.941817587827 588 4 4 2352 9408
98	997887 859 5238 328732 2 60 59 0 0 0 0
97	998746 1214 5238 328732 2 60 59 0.023625 0.02625 1.546125 0.040523765625
96	999960 859 5238 328732 2 60 59 4 4 236 944
117	1000819 19128 237 328179 1.11 59.91 589 -1.6628813463654 1.5198205760037 -16.063274654586 996.17741395845
116	1019947 19765 237 328179 1.11 59.91 589 -1.454116665284 1.4454737772104 -12.516382029689 671.09330937966
115	1039712 13259 237 328179 1.11 59.91 589 36.55 36.55 21527.95 786846.5725
114	1052971 19085 237 328179 1.11 59.91 589 95.664088821411 914.8792805104 298663.91875928 184337362.48877
113	1072056 19061 237 328179 1.11 59.91 589 12.511961934881 15.832166385572 8205.6079204047 114758.5468412
111	1091117 20667 237 328179 1.11 59.91 589 -0.13449390900814 0.20167926375243 -0.97165101782888 1.8782956720275
110	1111784 19077 237 328179 1.11 59.91 589 19.854018209395 20.452306952962 11808.514050387 236753.08248199
112	1130861 10903 237 328179 1.11 59.91 589 5 5 2945 14725
124	1141764 24296 1242 328622 1.287391362327 59.987397319804 588 0.099999759784 0.100012782678 58.800005718696 5.8800011455635
123	1166060 24274 988 328374 1.241824721884 59.941817667516 588 0.099999759791 0.100012780435 58.799992706851 5.8799985430314
122	1190334 16698 1242 328622 1.287391362327 59.987397319804 588 5 5 2940 14700
121	1207032 16692 988 328374 1.241824721884 59.941817667516 588 5 5 2940 14700
120	1223724 918 5239 328733 2 60 59 0 0 0 0
119	1224642 1273 5239 328733 2 60 59 0.023625 0.02625 1.546125 0.040523765625
118	1225915 918 5239 328733 2 60 59 5 5 295 1475
139	1226833 19673 238 328180 1.11 59.91 589 -1.5767513126745 1.5050040649834 -15.868593841426 973.43785996288
138	1246506 19777 238 328180 1.11 59.91 589 -1.4486611824216 1.4453709466906 -12.353989451721 661.17897082445
137	1266283 13259 238 328180 1.11 59.91 589 36.55 36.55 21527.95 786846.5725
136	1279542 19087 238 328180 1.11 59.91 589 71.664088821411 891.01724040153 284570.22996567 170401369.08875
135	1298629 19080 238 328180 1.11 59.91 589 12.521679702013 15.824081593573 8206.9935012848 114790.83093159
133	1317709 20801 238 328180 1.11 59.91 589 -0.063668897083014 0.038021879317521 -1.26041705985 0.25117162883514
132	1338510 19084 238 328180 1.11 59.91 589 19.759788991644 20.017941321279 11737.716505231 233916.0664325
134	1357594 10903 238 328180 1.11 59.91 589 6 6 3534 21204
146	1368497 24278 1106 328486 1.266713801939 59.966706747112 588 0.099999759788 0.100012780615 58.799992706392 5.8799985429396
145	1392775 24290 994 328380 1.241824801939 59.94181774711 588 0.099999759788 0.100012780436 58.79999270639 5.8799985429392
144	1417065 16686 1106 328486 1.266713801939 59.966706747112 588 6 6 3528 21168
143	1433751 16702 994 328380 1.241824801939 59.94181774711 588 6 6 3528 21168
142	1450453 918 5240 328734 2 60 59 0 0 0 0
141	1451371 1273 5240 328734 2 60 59 0.023625 0.02625 1.546125 0.040523765625
140	1452644 918 5240 328734 2 60 59 6 6 354 2124
161	1453562 19605 239 328181 1.11 59.91 589 -1.5409065247868 1.5108134461184 -15.985303171505 984.14590156166
160	1473167 19780 239 328181 1.11 59.91 589 -1.4519455768838 1.4442824629413 -12.401240502443 661.92877449112
159	1492947 13259 239 328181 1.11 59.91 589 36.55 36.55 21527.95 786846.5725
158	1506206 19089 239 328181 1.11 59.91 589 47.664088821411 867.14649468268 270470.7911745 157133124.48611
157	1525295 19083 239 328181 1.11 59.91 589 12.529852126627 15.828641343931 8208.2844302869 114826.89658116
155	1544378 20881 239 328181 1.11 59.91 589 -0.03183454380985 0.034197072370333 -1.1673891075044 0.17958124399405
154	1565259 19060 239 328181 1.11 59.91 589 19.808349856121 20.020493115623 11743.46460975 234144.25364915
156	1584319 10903 239 328181 1.11 59.91 589 7 7 4123 28861
168	1595222 24292 1308 328694 1.289468522438 59.989474479021 588 0.099999759782 0.100012783059 58.800005717802 5.8800011453848
167	1619514 24281 1000 328386 1.241824881995 59.941817826734 588 0.099999759789 0.100012780438 58.799992705958 5.8799985428528
166	1643795 16709 1308 328694 1.289468522438 59.989474479021 588 7 7 4116 28812
165	1660504 16706 1000 328386 1.241824881995 59.941817826734 588 7 7 4116 28812
164	1677210 918 5241 328735 2 60 59 0 0 0 0
163	1678128 1273 5241 328735 2 60 59 0.023625 0.02625 1.546125 0.040523765625
162	1679401 918 5241 328735 2 60 59 7 7 413 2891
