file 1681179 1512142428                                         
version 2
run SinusoidalSpeedInjectionAttack-208-20171201-16:33:19-9721
attr CACCSpacing 20
attr attackAcc -30
attr attackPos 7
attr attackSpeed 100
attr attackStart 30
attr attacker 3
attr beaconInterval 0.1
attr configname SinusoidalSpeedInjectionAttack
attr controller 1
attr datetime 20171201-16:33:19
attr experiment SinusoidalSpeedInjectionAttack
attr fakeAcc "(3 == 4)"
attr fakePos "(3 == 2)"
attr fakeSpeed "(3 == 3)"
attr inifile omnetpp_208.ini
attr iterationvars "$attacker=3, $attackSpeed=100, $attackPos=7, $attackAcc=-30, $leaderSpeed=100, $controller=1, $CACCSpacing=20, $sController=\"CACC\", $attackStart=30, $0=20, $1=0, $nCars=8, $platoonSize=8, $nLanes=1, $beaconInterval=0.1, $priority=2, $packetSize=200, $ploegH=0.5, $leaderHeadway=1.2, $fakeSpeed=(3 == 3), $fakeAcc=(3 == 4), $fakePos=(3 == 2)"
attr iterationvarsf attacker=3,attackSpeed=100,attackPos=7,attackAcc=-30,leaderSpeed=100,controller=1,CACCSpacing=20,sController=CACC,attackStart=30,20,0,nCars=8,platoonSize=8,nLanes=1,beaconInterval=0.1,priority=2,packetSize=200,ploegH=0.5,leaderHeadway=1.2,fakeSpeed=(3_==_3),fakeAcc=(3_==_4),fakePos=(3_==_2)-
attr leaderHeadway 1.2
attr leaderSpeed 100
attr measurement "$attacker=3, $attackSpeed=100, $attackPos=7, $attackAcc=-30, $leaderSpeed=100, $controller=1, $CACCSpacing=20, $sController=\"CACC\", $attackStart=30, $0=20, $1=0, $nCars=8, $platoonSize=8, $nLanes=1, $beaconInterval=0.1, $priority=2, $packetSize=200, $ploegH=0.5, $leaderHeadway=1.2, $fakeSpeed=(3 == 3), $fakeAcc=(3 == 4), $fakePos=(3 == 2)"
attr nCars 8
attr nLanes 1
attr network scenario
attr packetSize 200
attr platoonSize 8
attr ploegH 0.5
attr priority 2
attr processid 9721
attr repetition 3
attr replication #3
attr resultdir results
attr runnumber 208
attr sController "\"CACC\""
attr seedset 3
param **.coreDebug false
param **.debug false
param **.headway 0.1s
param **.numberOfCars 8
param **.numberOfCarsPerPlatoon 8
param **.numberOfLanes 1
param **.numericController 1
param **.traffic.nCars 8
param **.traffic.nLanes 1
param **.traffic.platoonInsertDistance 20m
param **.traffic.platoonInsertHeadway 0s
param **.traffic.platoonInsertSpeed 100kmph
param **.traffic.platoonInsertTime "1 s"
param **.traffic.platoonLeaderHeadway 1.2s
param **.traffic.platoonSize 8
param **.traffic.platooningVType "\"vtypeauto\""
param **.traffic_type "\"PlatoonsTrafficManager\""
param *.**.nic.mac1609_4.bitrate 6Mbps
param *.**.nic.mac1609_4.txPower 100mW
param *.**.nic.mac1609_4.useServiceChannel false
param *.**.nic.phy80211p.analogueModels "xmldoc(\"config.xml\")"
param *.**.nic.phy80211p.decider "xmldoc(\"config.xml\")"
param *.**.nic.phy80211p.maxTXPower 100mW
param *.**.nic.phy80211p.sensitivity -94dBm
param *.**.nic.phy80211p.thermalNoise -95dBm
param *.**.nic.phy80211p.usePropagationDelay true
param *.**.nic.phy80211p.useThermalNoise true
param *.annotations.draw false
param *.connectionManager.alpha 2.0
param *.connectionManager.carrierFrequency "5.890e9 Hz"
param *.connectionManager.pMax 100mW
param *.connectionManager.sat -94dBm
param *.connectionManager.sendDirect true
param *.manager.autoShutdown true
param *.manager.commandLine "\"sumo --remote-port $port --seed $seed --configuration-file $configFile\""
param *.manager.configFile "\"./sumocfg/freeway.sumo.cfg\""
param *.manager.host "\"localhost\""
param *.manager.margin 25
param *.manager.moduleDisplayString "\"\""
param *.manager.moduleName "\"node\""
param *.manager.moduleType "\"Car\""
param *.manager.updateInterval 0.01s
param *.node[*].appl.attackStart 30s
param *.node[*].appl.attackerType 3
param *.node[*].appl.simulationDuration "60 s"
param *.node[*].appl_type "\"SimplePlatooningApp\""
param *.node[*].helper.nCars 8
param *.node[*].helper.nLanes 1
param *.node[*].helper.platoonSize 8
param *.node[*].helper_type "\"PositionHelper\""
param *.node[*].mobility.x 0
param *.node[*].mobility.y 0
param *.node[*].mobility.z 1.895
param *.node[*].prot.attackStart 30s
param *.node[*].prot.attackerType 3
param *.node[*].prot.attackingNode 3
param *.node[*].prot.beaconingInterval 0.1s
param *.node[*].prot.fakeAcc "(3 == 4)"
param *.node[*].prot.fakePos "(3 == 2)"
param *.node[*].prot.fakeSpeed "(3 == 3)"
param *.node[*].prot.maliciousAcc "-30 mpss"
param *.node[*].prot.maliciousSpeed 100kmph
param *.node[*].prot.packetSize 200
param *.node[*].prot.priority 2
param *.node[*].prot.shiftX "7 m"
param *.node[*].prot.useControllerAcceleration true
param *.node[*].protocol_type "\"SimplePlatooningBeaconing\""
param *.node[*].scenario.accHeadway 0.1s
param *.node[*].scenario.caccC1 0.5
param *.node[*].scenario.caccOmegaN "0.2 Hz"
param *.node[*].scenario.caccSpacing 20m
param *.node[*].scenario.caccXi 1
param *.node[*].scenario.controller "\"CACC\""
param *.node[*].scenario.engineTau "0.5 s"
param *.node[*].scenario.leaderHeadway 1.2s
param *.node[*].scenario.leaderSpeed 100kmph
param *.node[*].scenario.ploegH 0.5s
param *.node[*].scenario.ploegKd 0.7
param *.node[*].scenario.ploegKp 0.2
param *.node[*].scenario.useRealisticEngine false
param *.node[*].scenario_type "\"SinusoidalScenario\""
param *.node[*].unicast.packetLossRate 0
param *.obstacles.debug false
param *.playgroundSizeX 65000m
param *.playgroundSizeY 25000m
param *.playgroundSizeZ 50m
param *.world.use2D false
param *.world.useTorus false

vector 0  scenario.node[0].appl  distance  ETV
vector 1  scenario.node[0].appl  relativeSpeed  ETV
vector 2  scenario.node[0].appl  nodeId  ETV
vector 6  scenario.node[0].appl  acceleration  ETV
vector 7  scenario.node[0].appl  controllerAcceleration  ETV
vector 3  scenario.node[0].appl  speed  ETV
vector 4  scenario.node[0].appl  posx  ETV
vector 5  scenario.node[0].appl  posy  ETV
vector 22  scenario.node[1].appl  distance  ETV
vector 23  scenario.node[1].appl  relativeSpeed  ETV
vector 24  scenario.node[1].appl  nodeId  ETV
vector 28  scenario.node[1].appl  acceleration  ETV
vector 29  scenario.node[1].appl  controllerAcceleration  ETV
vector 25  scenario.node[1].appl  speed  ETV
vector 26  scenario.node[1].appl  posx  ETV
vector 27  scenario.node[1].appl  posy  ETV
vector 44  scenario.node[2].appl  distance  ETV
vector 45  scenario.node[2].appl  relativeSpeed  ETV
vector 46  scenario.node[2].appl  nodeId  ETV
vector 50  scenario.node[2].appl  acceleration  ETV
vector 51  scenario.node[2].appl  controllerAcceleration  ETV
vector 47  scenario.node[2].appl  speed  ETV
vector 48  scenario.node[2].appl  posx  ETV
vector 49  scenario.node[2].appl  posy  ETV
vector 66  scenario.node[3].appl  distance  ETV
vector 67  scenario.node[3].appl  relativeSpeed  ETV
vector 68  scenario.node[3].appl  nodeId  ETV
vector 72  scenario.node[3].appl  acceleration  ETV
vector 73  scenario.node[3].appl  controllerAcceleration  ETV
vector 69  scenario.node[3].appl  speed  ETV
vector 70  scenario.node[3].appl  posx  ETV
vector 71  scenario.node[3].appl  posy  ETV
vector 88  scenario.node[4].appl  distance  ETV
vector 89  scenario.node[4].appl  relativeSpeed  ETV
vector 90  scenario.node[4].appl  nodeId  ETV
vector 94  scenario.node[4].appl  acceleration  ETV
vector 95  scenario.node[4].appl  controllerAcceleration  ETV
vector 91  scenario.node[4].appl  speed  ETV
vector 92  scenario.node[4].appl  posx  ETV
vector 93  scenario.node[4].appl  posy  ETV
vector 110  scenario.node[5].appl  distance  ETV
vector 111  scenario.node[5].appl  relativeSpeed  ETV
vector 112  scenario.node[5].appl  nodeId  ETV
vector 116  scenario.node[5].appl  acceleration  ETV
vector 117  scenario.node[5].appl  controllerAcceleration  ETV
vector 113  scenario.node[5].appl  speed  ETV
vector 114  scenario.node[5].appl  posx  ETV
vector 115  scenario.node[5].appl  posy  ETV
vector 132  scenario.node[6].appl  distance  ETV
vector 133  scenario.node[6].appl  relativeSpeed  ETV
vector 134  scenario.node[6].appl  nodeId  ETV
vector 138  scenario.node[6].appl  acceleration  ETV
vector 139  scenario.node[6].appl  controllerAcceleration  ETV
vector 135  scenario.node[6].appl  speed  ETV
vector 136  scenario.node[6].appl  posx  ETV
vector 137  scenario.node[6].appl  posy  ETV
vector 154  scenario.node[7].appl  distance  ETV
vector 155  scenario.node[7].appl  relativeSpeed  ETV
vector 156  scenario.node[7].appl  nodeId  ETV
vector 160  scenario.node[7].appl  acceleration  ETV
vector 161  scenario.node[7].appl  controllerAcceleration  ETV
vector 157  scenario.node[7].appl  speed  ETV
vector 158  scenario.node[7].appl  posx  ETV
vector 159  scenario.node[7].appl  posy  ETV
vector 35  scenario.node[1].prot  leaderDelay  ETV
vector 33  scenario.node[1].prot  leaderDelayId  ETV
vector 36  scenario.node[1].prot  frontDelay  ETV
vector 34  scenario.node[1].prot  frontDelayId  ETV
vector 57  scenario.node[2].prot  leaderDelay  ETV
vector 55  scenario.node[2].prot  leaderDelayId  ETV
vector 79  scenario.node[3].prot  leaderDelay  ETV
vector 77  scenario.node[3].prot  leaderDelayId  ETV
vector 101  scenario.node[4].prot  leaderDelay  ETV
vector 99  scenario.node[4].prot  leaderDelayId  ETV
vector 123  scenario.node[5].prot  leaderDelay  ETV
vector 121  scenario.node[5].prot  leaderDelayId  ETV
vector 145  scenario.node[6].prot  leaderDelay  ETV
vector 143  scenario.node[6].prot  leaderDelayId  ETV
vector 167  scenario.node[7].prot  leaderDelay  ETV
vector 165  scenario.node[7].prot  leaderDelayId  ETV
vector 168  scenario.node[7].prot  frontDelay  ETV
vector 166  scenario.node[7].prot  frontDelayId  ETV
vector 58  scenario.node[2].prot  frontDelay  ETV
vector 56  scenario.node[2].prot  frontDelayId  ETV
vector 124  scenario.node[5].prot  frontDelay  ETV
vector 122  scenario.node[5].prot  frontDelayId  ETV
vector 80  scenario.node[3].prot  frontDelay  ETV
vector 78  scenario.node[3].prot  frontDelayId  ETV
vector 146  scenario.node[6].prot  frontDelay  ETV
vector 144  scenario.node[6].prot  frontDelayId  ETV
vector 102  scenario.node[4].prot  frontDelay  ETV
vector 100  scenario.node[4].prot  frontDelayId  ETV
vector 8  scenario.node[0].prot  nodeId  ETV
vector 9  scenario.node[0].prot  busyTime  ETV
vector 10  scenario.node[0].prot  collisions  ETV
vector 30  scenario.node[1].prot  nodeId  ETV
vector 31  scenario.node[1].prot  busyTime  ETV
vector 32  scenario.node[1].prot  collisions  ETV
vector 52  scenario.node[2].prot  nodeId  ETV
vector 53  scenario.node[2].prot  busyTime  ETV
vector 54  scenario.node[2].prot  collisions  ETV
vector 74  scenario.node[3].prot  nodeId  ETV
vector 75  scenario.node[3].prot  busyTime  ETV
vector 76  scenario.node[3].prot  collisions  ETV
vector 96  scenario.node[4].prot  nodeId  ETV
vector 97  scenario.node[4].prot  busyTime  ETV
vector 98  scenario.node[4].prot  collisions  ETV
vector 118  scenario.node[5].prot  nodeId  ETV
vector 119  scenario.node[5].prot  busyTime  ETV
vector 120  scenario.node[5].prot  collisions  ETV
vector 140  scenario.node[6].prot  nodeId  ETV
vector 141  scenario.node[6].prot  busyTime  ETV
vector 142  scenario.node[6].prot  collisions  ETV
vector 162  scenario.node[7].prot  nodeId  ETV
vector 163  scenario.node[7].prot  busyTime  ETV
vector 164  scenario.node[7].prot  collisions  ETV
7	11095 13860 232 328174 1.11 59.91 589 -1.5 1.5 -14.445974034379 993.24092368185
6	24955 18594 232 328174 1.11 59.91 589 -1.4722746794938 1.4513434175793 -12.50726914995 675.29835222675
5	43549 12081 232 328174 1.11 59.91 589 36.55 36.55 21527.95 786846.5725
4	55630 17921 232 328174 1.11 59.91 589 210.1237403867 1847.7732059291 606870.41977949 757073017.98182
3	73551 17905 232 328174 1.11 59.91 589 26.487965859734 29.742492528104 16403.83880962 457295.15275867
1	91456 9725 232 328174 1.11 59.91 589 0 0 0 0
0	101181 10314 232 328174 1.11 59.91 589 -1 -1 -589 589
2	111495 9725 232 328174 1.11 59.91 589 0 0 0 0
10	121220 858 5056 328550 2 60 59 0 0 0 0
9	122078 1556 5056 328550 2 60 59 0.022755747372 0.026262189362 1.545256227833 0.040483474893785
8	123634 799 5056 328550 2 60 59 0 0 0 0
29	124433 17091 233 328175 1.11 59.91 589 -1.5201885305329 1.5215379202346 -16.621674185581 995.58727585757
28	141524 19173 233 328175 1.11 59.91 589 -1.4845166976844 1.4492363479558 -12.160484493321 675.58506012385
27	160697 12670 233 328175 1.11 59.91 589 36.55 36.55 21527.95 786846.5725
26	173367 18503 233 328175 1.11 59.91 589 186.12374038696 1823.718689474 592677.43018533 728144009.97347
25	191870 18505 233 328175 1.11 59.91 589 26.48258984786 29.73823345156 16403.309238542 457265.69208542
23	210375 20104 233 328175 1.11 59.91 589 -0.085666453974444 0.09234661028168 0.65464376923376 2.4329174921465
22	230479 18509 233 328175 1.11 59.91 589 19.942679175015 20.230457319092 11836.979002739 237887.94077277
24	248988 10314 233 328175 1.11 59.91 589 1 1 589 589
36	259302 23670 836 328222 1.269559161495 59.969559228356 588 0.099987080745 0.10000011564 58.800000148301 5.8800000303314
35	282972 23670 836 328222 1.269559161495 59.969559228356 588 0.099987080745 0.10000011564 58.800000148301 5.8800000303314
34	306642 16114 836 328222 1.269559161495 59.969559228356 588 1 1 588 588
33	322756 16114 836 328222 1.269559161495 59.969559228356 588 1 1 588 588
32	338870 858 5057 328551 2 60 59 0 0 0 0
31	339728 1612 5057 328551 2 60 59 0.022755827428 0.026262189695 1.54525630806 0.04048347854626
30	341340 858 5057 328551 2 60 59 1 1 59 59
51	342198 16926 234 328176 1.11 59.91 589 -1.5268714797433 1.5218527223985 -17.317403538713 996.91294511836
50	359124 19212 234 328176 1.11 59.91 589 -1.4757144530289 1.4406976854907 -11.958325661864 669.52166393141
49	378336 12670 234 328176 1.11 59.91 589 36.55 36.55 21527.95 786846.5725
48	391006 18502 234 328176 1.11 59.91 589 162.12374038696 1799.668266186 578516.28870081 699974146.43172
47	409508 18484 234 328176 1.11 59.91 589 26.486567370713 29.731244925024 16402.810619082 457233.59198981
45	427992 20599 234 328176 1.11 59.91 589 -0.0098541922603808 0.013218816456234 0.62022430506676 0.019279111717616
44	448591 18489 234 328176 1.11 59.91 589 19.996915730618 20.081402683001 11805.131512136 236606.675136
46	467080 10314 234 328176 1.11 59.91 589 2 2 1178 2356
58	477394 23674 1046 328426 1.299191202215 59.999191279025 588 0.099987082704 0.100000115641 58.80000015825 5.8800000323214
57	501068 23653 842 328228 1.269559241551 59.969559308577 588 0.099987080748 0.100000115634 58.800000148466 5.8800000303644
56	524721 16123 1046 328426 1.299191202215 59.999191279025 588 2 2 1176 2352
55	540844 16109 842 328228 1.269559241551 59.969559308577 588 2 2 1176 2352
54	556953 858 5058 328552 2 60 59 0 0 0 0
53	557811 1617 5058 328552 2 60 59 0.022755907483 0.026262189765 1.54525638828 0.040483482198369
52	559428 858 5058 328552 2 60 59 2 2 118 236
73	560286 19029 235 328177 1.11 59.91 589 -1.4873962137024 1.4906490651251 -15.470227343503 941.16499599315
72	579315 19153 235 328177 1.11 59.91 589 -1.462903729573 1.4324081195152 -11.647621772741 659.58246819119
71	598468 12670 235 328177 1.11 59.91 589 36.55 36.55 21527.95 786846.5725
70	611138 18497 235 328177 1.11 59.91 589 138.12373275757 1775.7071547955 564388.21030798 672562067.63337
69	629635 18476 235 328177 1.11 59.91 589 26.497257204844 29.722404727259 16403.210300697 457249.46486811
67	648111 20140 235 328177 1.11 59.91 589 -0.037916123784164 0.029305426055323 -0.28009835907558 0.23648667304416
66	668251 18487 235 328177 1.11 59.91 589 19.934505806172 20.063152462656 11772.086386459 235284.02212579
68	686738 10314 235 328177 1.11 59.91 589 3 3 1767 5301
80	697052 23655 1180 328569 1.300212602492 60.000212691638 588 0.099987080261 0.10000011568 58.800000170586 5.8800000347888
79	720707 23680 848 328234 1.269559321606 59.969559388497 588 0.099987080752 0.100000115623 58.800000148331 5.8800000303374
78	744387 16119 1180 328569 1.300212602492 60.000212691638 588 3 3 1764 5292
77	760506 16136 848 328234 1.269559321606 59.969559388497 588 3 3 1764 5292
76	776642 858 5059 328553 2 60 59 0 0 0 0
75	777500 1614 5059 328553 2 60 59 0.022754827428 0.026262189643 1.545255308362 0.040483433051455
74	779114 858 5059 328553 2 60 59 3 3 177 531
95	779972 18322 236 328178 1.11 59.91 589 -1.8822273268232 1.8793643954667 -14.770387361829 989.52136344152
94	798294 19133 236 328178 1.11 59.91 589 -1.5187763511278 1.5145498894743 -12.673147920018 689.36985349245
93	817427 12670 236 328178 1.11 59.91 589 36.55 36.55 21527.95 786846.5725
92	830097 18501 236 328178 1.11 59.91 589 114.12373275757 1749.804148338 550062.71366567 645194134.79117
91	848598 18493 236 328178 1.11 59.91 589 26.336677860073 29.71189911739 16384.14205696 456210.42056131
89	867091 20073 236 328178 1.11 59.91 589 -0.29039375842409 0.36840240210111 19.184719955512 9.9273322813634
88	887164 18466 236 328178 1.11 59.91 589 19.483936055163 21.900691469563 11969.115277442 243473.66220331
90	905630 10314 236 328178 1.11 59.91 589 4 4 2356 9424
102	915944 24260 1312 328707 1.306018002769 60.006057109899 588 0.099909078567 0.100091114305 58.79997418857 5.879995965949
101	940204 24261 854 328240 1.269559401662 59.969559474918 588 0.099987080753 0.100000115661 58.800000154696 5.8800000316104
100	964465 16707 1312 328707 1.306018002769 60.006057109899 588 4 4 2352 9408
99	981172 16123 854 328240 1.269559401662 59.969559474918 588 4 4 2352 9408
98	997295 858 5060 328554 2 60 59 0 0 0 0
97	998153 1616 5060 328554 2 60 59 0.022755747372 0.026262189601 1.545256221932 0.040483474584029
96	999769 858 5060 328554 2 60 59 4 4 236 944
117	1000627 19066 237 328179 1.11 59.91 589 -1.6854232739208 1.6794353426379 -16.510530084343 997.26575642177
116	1019693 19744 237 328179 1.11 59.91 589 -1.4567825182628 1.4510936474355 -12.422745154401 669.42728598868
115	1039437 13259 237 328179 1.11 59.91 589 36.55 36.55 21527.95 786846.5725
114	1052696 19095 237 328179 1.11 59.91 589 90.123736572266 1725.9738166726 535903.32372889 619087186.20136
113	1071791 19079 237 328179 1.11 59.91 589 26.39028754357 29.704009596868 16385.849121067 456291.96107166
111	1090870 20639 237 328179 1.11 59.91 589 -0.1673967427522 0.25107762883968 -1.5803326277428 2.6771321709675
110	1111509 19095 237 328179 1.11 59.91 589 19.798554116445 20.498274629792 11803.424078054 236550.19300919
112	1130604 10903 237 328179 1.11 59.91 589 5 5 2945 14725
124	1141507 24246 1112 328492 1.299591442381 59.999591524855 588 0.099987079135 0.100000115656 58.800000163914 5.8800000334538
123	1165753 24255 860 328246 1.269559481717 59.969559554403 588 0.099987080751 0.10000011565 58.800000154126 5.8800000314964
122	1190008 16708 1112 328492 1.299591442381 59.999591524855 588 5 5 2940 14700
121	1206716 16717 860 328246 1.269559481717 59.969559554403 588 5 5 2940 14700
120	1223433 917 5061 328555 2 60 59 0 0 0 0
119	1224350 1673 5061 328555 2 60 59 0.022754667317 0.026262189611 1.545255142449 0.040483425460285
118	1226023 917 5061 328555 2 60 59 5 5 295 1475
139	1226940 19558 238 328180 1.11 59.91 589 -1.5653975501314 1.5 -15.811205112315 954.24191232449
138	1246498 19742 238 328180 1.11 59.91 589 -1.4515357144926 1.4524124843692 -12.391077605596 667.41108948945
137	1266240 13259 238 328180 1.11 59.91 589 36.55 36.55 21527.95 786846.5725
136	1279499 19076 238 328180 1.11 59.91 589 66.123736572266 1702.0961694743 521788.89186037 593768248.99238
135	1298575 19075 238 328180 1.11 59.91 589 26.406594825337 29.71058107327 16387.073793519 456358.30372952
133	1317650 20793 238 328180 1.11 59.91 589 -0.042667072968314 0.045486158174484 -1.1004450011629 0.32684780030759
132	1338443 19051 238 328180 1.11 59.91 589 19.8262089866 20.116899685548 11758.456361976 234741.95479554
134	1357494 10903 238 328180 1.11 59.91 589 6 6 3534 21204
146	1368397 24265 1249 328644 1.305604842658 60.005604937198 588 0.099987078541 0.100000115706 58.80000017598 5.8800000358669
145	1392662 24263 866 328252 1.269559561772 59.96955963405 588 0.099987080748 0.100000115649 58.800000153718 5.8800000314148
144	1416925 16724 1249 328644 1.305604842658 60.005604937198 588 6 6 3528 21168
143	1433649 16704 866 328252 1.269559561772 59.96955963405 588 6 6 3528 21168
142	1450353 917 5062 328556 2 60 59 0 0 0 0
141	1451270 1677 5062 328556 2 60 59 0.022755587261 0.026262189691 1.545256062803 0.040483467348697
140	1452947 917 5062 328556 2 60 59 6 6 354 2124
161	1453864 19525 239 328181 1.11 59.91 589 -1.5433175072962 1.5214151436166 -16.159694982205 985.16954526402
160	1473389 19770 239 328181 1.11 59.91 589 -1.4499547005617 1.4440543263962 -12.223562413774 659.19431176376
159	1493159 13259 239 328181 1.11 59.91 589 36.55 36.55 21527.95 786846.5725
158	1506418 19088 239 328181 1.11 59.91 589 42.123735618591 1678.2529721342 507690.1784312 569163491.90185
157	1525506 19092 239 328181 1.11 59.91 589 26.418210518664 29.707520482332 16388.648226018 456440.69801424
155	1544598 21089 239 328181 1.11 59.91 589 -0.03831725054787 0.030496703991076 -1.4505217230502 0.10204983394302
154	1565687 19091 239 328181 1.11 59.91 589 19.778766316825 20.019809939564 11742.74491782 234115.68696644
156	1584778 10903 239 328181 1.11 59.91 589 7 7 4123 28861
168	1595681 24267 980 328360 1.292108801938 59.992108872636 588 0.099987079239 0.10000011563 58.800000152138 5.8800000310993
167	1619948 24268 872 328258 1.269559641828 59.969559713579 588 0.09998708075 0.100000115642 58.800000153191 5.8800000313094
166	1644216 16731 980 328360 1.292108801938 59.992108872636 588 7 7 4116 28812
165	1660947 16723 872 328258 1.269559641828 59.969559713579 588 7 7 4116 28812
164	1677670 917 5063 328557 2 60 59 0 0 0 0
163	1678587 1675 5063 328557 2 60 59 0.022755507206 0.026262189656 1.545255983275 0.040483463732968
162	1680262 917 5063 328557 2 60 59 7 7 413 2891
