file 926491 1512141884                                          
version 2
run SinusoidalSpeedInjectionAttack-107-20171201-16:24:27-85698
attr CACCSpacing 20
attr attackAcc -30
attr attackPos 7
attr attackSpeed 0
attr attackStart 30
attr attacker 3
attr beaconInterval 0.1
attr configname SinusoidalSpeedInjectionAttack
attr controller 1
attr datetime 20171201-16:24:27
attr experiment SinusoidalSpeedInjectionAttack
attr fakeAcc "(3 == 4)"
attr fakePos "(3 == 2)"
attr fakeSpeed "(3 == 3)"
attr inifile omnetpp_107.ini
attr iterationvars "$attacker=3, $attackSpeed=0, $attackPos=7, $attackAcc=-30, $leaderSpeed=150, $controller=1, $CACCSpacing=20, $sController=\"CACC\", $attackStart=30, $0=20, $1=0, $nCars=8, $platoonSize=8, $nLanes=1, $beaconInterval=0.1, $priority=2, $packetSize=200, $ploegH=0.5, $leaderHeadway=1.2, $fakeSpeed=(3 == 3), $fakeAcc=(3 == 4), $fakePos=(3 == 2)"
attr iterationvarsf attacker=3,attackSpeed=0,attackPos=7,attackAcc=-30,leaderSpeed=150,controller=1,CACCSpacing=20,sController=CACC,attackStart=30,20,0,nCars=8,platoonSize=8,nLanes=1,beaconInterval=0.1,priority=2,packetSize=200,ploegH=0.5,leaderHeadway=1.2,fakeSpeed=(3_==_3),fakeAcc=(3_==_4),fakePos=(3_==_2)-
attr leaderHeadway 1.2
attr leaderSpeed 150
attr measurement "$attacker=3, $attackSpeed=0, $attackPos=7, $attackAcc=-30, $leaderSpeed=150, $controller=1, $CACCSpacing=20, $sController=\"CACC\", $attackStart=30, $0=20, $1=0, $nCars=8, $platoonSize=8, $nLanes=1, $beaconInterval=0.1, $priority=2, $packetSize=200, $ploegH=0.5, $leaderHeadway=1.2, $fakeSpeed=(3 == 3), $fakeAcc=(3 == 4), $fakePos=(3 == 2)"
attr nCars 8
attr nLanes 1
attr network scenario
attr packetSize 200
attr platoonSize 8
attr ploegH 0.5
attr priority 2
attr processid 85698
attr repetition 2
attr replication #2
attr resultdir results
attr runnumber 107
attr sController "\"CACC\""
attr seedset 2
param **.coreDebug false
param **.debug false
param **.headway 0.1s
param **.numberOfCars 8
param **.numberOfCarsPerPlatoon 8
param **.numberOfLanes 1
param **.numericController 1
param **.traffic.nCars 8
param **.traffic.nLanes 1
param **.traffic.platoonInsertDistance 20m
param **.traffic.platoonInsertHeadway 0s
param **.traffic.platoonInsertSpeed 150kmph
param **.traffic.platoonInsertTime "1 s"
param **.traffic.platoonLeaderHeadway 1.2s
param **.traffic.platoonSize 8
param **.traffic.platooningVType "\"vtypeauto\""
param **.traffic_type "\"PlatoonsTrafficManager\""
param *.**.nic.mac1609_4.bitrate 6Mbps
param *.**.nic.mac1609_4.txPower 100mW
param *.**.nic.mac1609_4.useServiceChannel false
param *.**.nic.phy80211p.analogueModels "xmldoc(\"config.xml\")"
param *.**.nic.phy80211p.decider "xmldoc(\"config.xml\")"
param *.**.nic.phy80211p.maxTXPower 100mW
param *.**.nic.phy80211p.sensitivity -94dBm
param *.**.nic.phy80211p.thermalNoise -95dBm
param *.**.nic.phy80211p.usePropagationDelay true
param *.**.nic.phy80211p.useThermalNoise true
param *.annotations.draw false
param *.connectionManager.alpha 2.0
param *.connectionManager.carrierFrequency "5.890e9 Hz"
param *.connectionManager.pMax 100mW
param *.connectionManager.sat -94dBm
param *.connectionManager.sendDirect true
param *.manager.autoShutdown true
param *.manager.commandLine "\"sumo --remote-port $port --seed $seed --configuration-file $configFile\""
param *.manager.configFile "\"./sumocfg/freeway.sumo.cfg\""
param *.manager.host "\"localhost\""
param *.manager.margin 25
param *.manager.moduleDisplayString "\"\""
param *.manager.moduleName "\"node\""
param *.manager.moduleType "\"Car\""
param *.manager.updateInterval 0.01s
param *.node[*].appl.attackStart 30s
param *.node[*].appl.attackerType 3
param *.node[*].appl.simulationDuration "60 s"
param *.node[*].appl_type "\"SimplePlatooningApp\""
param *.node[*].helper.nCars 8
param *.node[*].helper.nLanes 1
param *.node[*].helper.platoonSize 8
param *.node[*].helper_type "\"PositionHelper\""
param *.node[*].mobility.x 0
param *.node[*].mobility.y 0
param *.node[*].mobility.z 1.895
param *.node[*].prot.attackStart 30s
param *.node[*].prot.attackerType 3
param *.node[*].prot.attackingNode 3
param *.node[*].prot.beaconingInterval 0.1s
param *.node[*].prot.fakeAcc "(3 == 4)"
param *.node[*].prot.fakePos "(3 == 2)"
param *.node[*].prot.fakeSpeed "(3 == 3)"
param *.node[*].prot.maliciousAcc "-30 mpss"
param *.node[*].prot.maliciousSpeed 0kmph
param *.node[*].prot.packetSize 200
param *.node[*].prot.priority 2
param *.node[*].prot.shiftX "7 m"
param *.node[*].prot.useControllerAcceleration true
param *.node[*].protocol_type "\"SimplePlatooningBeaconing\""
param *.node[*].scenario.accHeadway 0.1s
param *.node[*].scenario.caccC1 0.5
param *.node[*].scenario.caccOmegaN "0.2 Hz"
param *.node[*].scenario.caccSpacing 20m
param *.node[*].scenario.caccXi 1
param *.node[*].scenario.controller "\"CACC\""
param *.node[*].scenario.engineTau "0.5 s"
param *.node[*].scenario.leaderHeadway 1.2s
param *.node[*].scenario.leaderSpeed 150kmph
param *.node[*].scenario.ploegH 0.5s
param *.node[*].scenario.ploegKd 0.7
param *.node[*].scenario.ploegKp 0.2
param *.node[*].scenario.useRealisticEngine false
param *.node[*].scenario_type "\"SinusoidalScenario\""
param *.node[*].unicast.packetLossRate 0
param *.obstacles.debug false
param *.playgroundSizeX 65000m
param *.playgroundSizeY 25000m
param *.playgroundSizeZ 50m
param *.world.use2D false
param *.world.useTorus false

vector 0  scenario.node[0].appl  distance  ETV
vector 1  scenario.node[0].appl  relativeSpeed  ETV
vector 2  scenario.node[0].appl  nodeId  ETV
vector 6  scenario.node[0].appl  acceleration  ETV
vector 7  scenario.node[0].appl  controllerAcceleration  ETV
vector 3  scenario.node[0].appl  speed  ETV
vector 4  scenario.node[0].appl  posx  ETV
vector 5  scenario.node[0].appl  posy  ETV
vector 22  scenario.node[1].appl  distance  ETV
vector 23  scenario.node[1].appl  relativeSpeed  ETV
vector 24  scenario.node[1].appl  nodeId  ETV
vector 28  scenario.node[1].appl  acceleration  ETV
vector 29  scenario.node[1].appl  controllerAcceleration  ETV
vector 25  scenario.node[1].appl  speed  ETV
vector 26  scenario.node[1].appl  posx  ETV
vector 27  scenario.node[1].appl  posy  ETV
vector 44  scenario.node[2].appl  distance  ETV
vector 45  scenario.node[2].appl  relativeSpeed  ETV
vector 46  scenario.node[2].appl  nodeId  ETV
vector 50  scenario.node[2].appl  acceleration  ETV
vector 51  scenario.node[2].appl  controllerAcceleration  ETV
vector 47  scenario.node[2].appl  speed  ETV
vector 48  scenario.node[2].appl  posx  ETV
vector 49  scenario.node[2].appl  posy  ETV
vector 66  scenario.node[3].appl  distance  ETV
vector 67  scenario.node[3].appl  relativeSpeed  ETV
vector 68  scenario.node[3].appl  nodeId  ETV
vector 72  scenario.node[3].appl  acceleration  ETV
vector 73  scenario.node[3].appl  controllerAcceleration  ETV
vector 69  scenario.node[3].appl  speed  ETV
vector 70  scenario.node[3].appl  posx  ETV
vector 71  scenario.node[3].appl  posy  ETV
vector 88  scenario.node[4].appl  distance  ETV
vector 89  scenario.node[4].appl  relativeSpeed  ETV
vector 90  scenario.node[4].appl  nodeId  ETV
vector 94  scenario.node[4].appl  acceleration  ETV
vector 95  scenario.node[4].appl  controllerAcceleration  ETV
vector 91  scenario.node[4].appl  speed  ETV
vector 92  scenario.node[4].appl  posx  ETV
vector 93  scenario.node[4].appl  posy  ETV
vector 110  scenario.node[5].appl  distance  ETV
vector 111  scenario.node[5].appl  relativeSpeed  ETV
vector 112  scenario.node[5].appl  nodeId  ETV
vector 116  scenario.node[5].appl  acceleration  ETV
vector 117  scenario.node[5].appl  controllerAcceleration  ETV
vector 113  scenario.node[5].appl  speed  ETV
vector 114  scenario.node[5].appl  posx  ETV
vector 115  scenario.node[5].appl  posy  ETV
vector 132  scenario.node[6].appl  distance  ETV
vector 133  scenario.node[6].appl  relativeSpeed  ETV
vector 134  scenario.node[6].appl  nodeId  ETV
vector 138  scenario.node[6].appl  acceleration  ETV
vector 139  scenario.node[6].appl  controllerAcceleration  ETV
vector 135  scenario.node[6].appl  speed  ETV
vector 136  scenario.node[6].appl  posx  ETV
vector 137  scenario.node[6].appl  posy  ETV
vector 154  scenario.node[7].appl  distance  ETV
vector 155  scenario.node[7].appl  relativeSpeed  ETV
vector 156  scenario.node[7].appl  nodeId  ETV
vector 160  scenario.node[7].appl  acceleration  ETV
vector 161  scenario.node[7].appl  controllerAcceleration  ETV
vector 157  scenario.node[7].appl  speed  ETV
vector 158  scenario.node[7].appl  posx  ETV
vector 159  scenario.node[7].appl  posy  ETV
vector 168  scenario.node[7].prot  frontDelay  ETV
vector 166  scenario.node[7].prot  frontDelayId  ETV
vector 146  scenario.node[6].prot  frontDelay  ETV
vector 144  scenario.node[6].prot  frontDelayId  ETV
vector 35  scenario.node[1].prot  leaderDelay  ETV
vector 33  scenario.node[1].prot  leaderDelayId  ETV
vector 36  scenario.node[1].prot  frontDelay  ETV
vector 34  scenario.node[1].prot  frontDelayId  ETV
vector 57  scenario.node[2].prot  leaderDelay  ETV
vector 55  scenario.node[2].prot  leaderDelayId  ETV
vector 79  scenario.node[3].prot  leaderDelay  ETV
vector 77  scenario.node[3].prot  leaderDelayId  ETV
vector 101  scenario.node[4].prot  leaderDelay  ETV
vector 99  scenario.node[4].prot  leaderDelayId  ETV
vector 123  scenario.node[5].prot  leaderDelay  ETV
vector 121  scenario.node[5].prot  leaderDelayId  ETV
vector 145  scenario.node[6].prot  leaderDelay  ETV
vector 143  scenario.node[6].prot  leaderDelayId  ETV
vector 167  scenario.node[7].prot  leaderDelay  ETV
vector 165  scenario.node[7].prot  leaderDelayId  ETV
vector 102  scenario.node[4].prot  frontDelay  ETV
vector 100  scenario.node[4].prot  frontDelayId  ETV
vector 80  scenario.node[3].prot  frontDelay  ETV
vector 78  scenario.node[3].prot  frontDelayId  ETV
vector 124  scenario.node[5].prot  frontDelay  ETV
vector 122  scenario.node[5].prot  frontDelayId  ETV
vector 58  scenario.node[2].prot  frontDelay  ETV
vector 56  scenario.node[2].prot  frontDelayId  ETV
vector 8  scenario.node[0].prot  nodeId  ETV
vector 9  scenario.node[0].prot  busyTime  ETV
vector 10  scenario.node[0].prot  collisions  ETV
vector 30  scenario.node[1].prot  nodeId  ETV
vector 31  scenario.node[1].prot  busyTime  ETV
vector 32  scenario.node[1].prot  collisions  ETV
vector 52  scenario.node[2].prot  nodeId  ETV
vector 53  scenario.node[2].prot  busyTime  ETV
vector 54  scenario.node[2].prot  collisions  ETV
vector 74  scenario.node[3].prot  nodeId  ETV
vector 75  scenario.node[3].prot  busyTime  ETV
vector 76  scenario.node[3].prot  collisions  ETV
vector 96  scenario.node[4].prot  nodeId  ETV
vector 97  scenario.node[4].prot  busyTime  ETV
vector 98  scenario.node[4].prot  collisions  ETV
vector 118  scenario.node[5].prot  nodeId  ETV
vector 119  scenario.node[5].prot  busyTime  ETV
vector 120  scenario.node[5].prot  collisions  ETV
vector 140  scenario.node[6].prot  nodeId  ETV
vector 141  scenario.node[6].prot  busyTime  ETV
vector 142  scenario.node[6].prot  collisions  ETV
vector 162  scenario.node[7].prot  nodeId  ETV
vector 163  scenario.node[7].prot  busyTime  ETV
vector 164  scenario.node[7].prot  collisions  ETV
7	11087 7782 232 182032 1.11 33.71 327 -1.5 1.5 -4.2539854477019 520.8098403155
6	18869 10262 232 182032 1.11 33.71 327 -1.4722746794739 1.4513407705138 2.6867410605036 346.33181771377
5	29131 6579 232 182032 1.11 33.71 327 36.55 36.55 11951.85 436840.1175
4	35710 9811 232 182032 1.11 33.71 327 207.05996208151 1570.3298601136 290830.42178216 309532454.491
3	45521 9798 232 182032 1.11 33.71 327 40.376926150007 43.631381416411 13674.469648476 572078.30813871
1	55319 5271 232 182032 1.11 33.71 327 0 0 0 0
0	60590 5598 232 182032 1.11 33.71 327 -1 -1 -327 327
2	66188 5271 232 182032 1.11 33.71 327 0 0 0 0
10	71459 453 5168 178056 2 33 32 0 0 0 0
9	71912 614 5168 178056 2 33 32 0.023297 0.02625 0.837047 0.021903687709
8	72526 421 5168 178056 2 33 32 0 0 0 0
29	72947 9598 233 182033 1.11 33.71 327 -1.5201885308666 1.5215379204632 -3.7011981401939 520.58814657562
28	82545 10574 233 182033 1.11 33.71 327 -1.4845166983122 1.4492363480585 3.5703443215894 345.67433284275
27	93119 6906 233 182033 1.11 33.71 327 36.55 36.55 11951.85 436840.1175
26	100025 10133 233 182033 1.11 33.71 327 183.05996208191 1546.1811770577 282960.87154511 295714157.34618
25	110158 10144 233 182033 1.11 33.71 327 40.371478735482 43.62712233618 13673.015091511 571957.63006223
23	120302 11071 233 182033 1.11 33.71 327 -0.081527957469319 0.092346611381046 1.4276895547417 1.2418423550584
22	131373 10134 233 182033 1.11 33.71 327 19.942679106234 20.212890320125 6561.5211459128 131663.83145767
24	141507 5598 233 182033 1.11 33.71 327 1 1 327 327
36	147105 12965 1034 181721 1.262218481716 33.662210257165 325 0.099999759937 0.100012761733 32.499991536667 3.2499983081647
35	160070 12965 1034 181721 1.262218481716 33.662210257165 325 0.099999759937 0.100012761733 32.499991536667 3.2499983081647
34	173035 8773 1034 181721 1.262218481716 33.662210257165 325 1 1 325 325
33	181808 8773 1034 181721 1.262218481716 33.662210257165 325 1 1 325 325
32	190581 453 5169 178057 2 33 32 0 0 0 0
31	191034 646 5169 178057 2 33 32 0.023296 0.02625 0.837046 0.021903641116
30	191680 453 5169 178057 2 33 32 1 1 32 32
51	192133 10489 234 182034 1.11 33.71 327 -1.4917898285855 1.4990053112133 -2.3761801895405 502.07345164068
50	202622 10556 234 182034 1.11 33.71 327 -1.4755502044913 1.4415473076198 3.8319135985766 342.77522167199
49	213178 6906 234 182034 1.11 33.71 327 36.55 36.55 11951.85 436840.1175
48	220084 10147 234 182034 1.11 33.71 327 159.05996208191 1522.13881794 275107.83941887 282310100.07363
47	230231 10143 234 182034 1.11 33.71 327 40.374899765154 43.621861122539 13672.598766839 571920.87324588
45	240374 11184 234 182034 1.11 33.71 327 -0.01777464488606 0.016578161066576 0.38062122840734 0.030505303975534
44	251558 10120 234 182034 1.11 33.71 327 19.984493222034 20.053060378349 6545.0237997494 131001.13671278
46	261678 5598 234 182034 1.11 33.71 327 2 2 654 1308
58	267276 12991 1312 181994 1.302598202214 33.702603284355 325 0.099999759924 0.100012763807 32.500004843359 3.2500009696661
57	280267 12975 1040 181727 1.262218561772 33.662210337365 325 0.099999759938 0.100012761742 32.499991536811 3.2499983081936
56	293242 8785 1312 181994 1.302598202214 33.702603284355 325 2 2 650 1300
55	302027 8779 1040 181727 1.262218561772 33.662210337365 325 2 2 650 1300
54	310806 453 5170 178058 2 33 32 0 0 0 0
53	311259 646 5170 178058 2 33 32 0.023297 0.02625 0.837047 0.021903687709
52	311905 453 5170 178058 2 33 32 2 2 64 128
73	312358 10432 235 182035 1.11 33.71 327 -1.5133685813507 1.5079615905469 -2.8868089393417 514.79626862119
72	322790 10576 235 182035 1.11 33.71 327 -1.4653396919059 1.4363794006925 3.9447691327574 338.07379626112
71	333366 6906 235 182035 1.11 33.71 327 36.55 36.55 11951.85 436840.1175
70	340272 10131 235 182035 1.11 33.71 327 135.0599697113 1498.1494271156 267262.34611714 269300026.30656
69	350403 10141 235 182035 1.11 33.71 327 40.383586413493 43.612915647186 13672.709340375 571927.27926652
67	360544 11273 235 182035 1.11 33.71 327 -0.015548640498203 0.01123016172378 -0.14889267180244 0.01262546699277
66	371817 10134 235 182035 1.11 33.71 327 19.962130290872 20.035282119877 6537.4955132019 130699.93327565
68	381951 5598 235 182035 1.11 33.71 327 3 3 981 2943
80	387549 12980 1176 181857 1.287874801937 33.68787957743 325 0.099999759933 0.100012763801 32.500004536711 3.2500009083365
79	400529 12970 1046 181733 1.262218641827 33.662210417387 325 0.099999759936 0.100012761748 32.499991536778 3.249998308187
78	413499 8781 1176 181857 1.287874801937 33.68787957743 325 3 3 975 2925
77	422280 8774 1046 181733 1.262218641827 33.662210417387 325 3 3 975 2925
76	431054 453 5171 178059 2 33 32 0 0 0 0
75	431507 646 5171 178059 2 33 32 0.023297 0.02625 0.837047 0.021903687709
74	432153 453 5171 178059 2 33 32 3 3 96 288
95	432606 10546 236 182036 1.11 33.71 327 -10.98591615013 1.5 -255.67068299838 2197.5121462556
94	443152 10595 236 182036 1.11 33.71 327 -8.0280728490102 1.4289148565439 -232.63856347747 1693.716539723
93	453747 6906 236 182036 1.11 33.71 327 36.55 36.55 11951.85 436840.1175
92	460653 10125 236 182036 1.11 33.71 327 111.0599697113 1427.6334241223 258836.82225329 255015156.9659
91	470778 10145 236 182036 1.11 33.71 327 18.589663178826 43.602711284548 13199.292530356 540111.81313549
89	480923 11155 236 182036 1.11 33.71 327 -0.013442532892654 23.542643921509 473.37736232777 8282.7117388022
88	492078 10123 236 182036 1.11 33.71 327 19.979107514516 66.045405218616 7108.0555276474 170054.30257079
90	502201 5598 236 182036 1.11 33.71 327 4 4 1308 5232
102	507799 13292 1108 181801 1.276580721882 33.676585649466 325 0.099999759934 0.100012763824 32.500004688802 3.2500009387547
101	521091 13308 1052 181739 1.262218721883 33.662210648684 325 0.099999759933 0.100012761751 32.499991688019 3.2499983384351
100	534399 9100 1108 181801 1.276580721882 33.676585649466 325 4 4 1300 5200
99	543499 8782 1052 181739 1.262218721883 33.662210648684 325 4 4 1300 5200
98	552281 453 5172 178060 2 33 32 0 0 0 0
97	552734 646 5172 178060 2 33 32 0.023297 0.02625 0.837047 0.021903687709
96	553380 453 5172 178060 2 33 32 4 4 128 512
139	553833 10866 238 182038 1.11 33.71 327 -4.4252051236703 1.4959038764569 -109.69469315965 743.01004620831
138	564699 10926 238 182038 1.11 33.71 327 -4.0304725662196 1.4350229191201 -89.840230407732 509.13287203822
137	575625 7233 238 182038 1.11 33.71 327 36.55 36.55 11951.85 436840.1175
136	582858 10464 238 182038 1.11 33.71 327 63.059965896606 1411.3211867285 243554.16663418 232054073.55588
135	593322 10472 238 182038 1.11 33.71 327 32.869209335512 43.608495004992 13521.165761378 560020.04084417
133	603794 11521 238 182038 1.11 33.71 327 -5.7257009276785 0.010619115017491 -118.19663849078 511.17215499205
132	615315 10454 238 182038 1.11 33.71 327 8.3502354924169 20.027592333717 6393.4591763612 126014.53883648
134	625769 5925 238 182038 1.11 33.71 327 6 6 1962 11772
146	631694 13304 970 181657 1.247596081439 33.647600732631 325 0.09999975992 0.100012762896 32.50000441241 3.2500008834762
145	644998 13310 1064 181751 1.262218881993 33.662210705477 325 0.099999759935 0.100012761754 32.499991584702 3.2499983177717
144	658308 9112 970 181657 1.247596081439 33.647600732631 325 6 6 1950 11700
143	667420 9113 1064 181751 1.262218881993 33.662210705477 325 6 6 1950 11700
142	676533 485 5174 178062 2 33 32 0 0 0 0
141	677018 678 5174 178062 2 33 32 0.023297 0.02625 0.837047 0.021903687709
140	677696 485 5174 178062 2 33 32 6 6 192 1152
161	678181 10887 239 182039 1.11 33.71 327 -3.5716692695384 1.4866431696976 -67.591225580349 589.92545936101
160	689068 10942 239 182039 1.11 33.71 327 -3.3447204925864 1.4298755962791 -52.263898567174 392.26037974674
159	700010 7233 239 182039 1.11 33.71 327 36.55 36.55 11951.85 436840.1175
158	707243 10471 239 182039 1.11 33.71 327 39.059966850281 1394.0713581003 235787.60793426 220773522.26566
157	717714 10467 239 182039 1.11 33.71 327 36.588096680264 43.603378758373 13589.97514818 565204.00551436
155	728181 11547 239 182039 1.11 33.71 327 -3.6785826190905 0.008629600766966 -67.910984498263 177.57047339309
154	739728 10451 239 182039 1.11 33.71 327 13.324206375124 20.013502936188 6459.9348876598 127927.81920991
156	750179 5925 239 182039 1.11 33.71 327 7 7 2289 16023
168	756104 13355 832 182082 1.212137841273 33.712129711234 326 0.099999759918 0.100012762793 32.599991631179 3.2599983270674
167	769459 13298 1070 181757 1.262218962049 33.662210763635 325 0.099999759934 0.100012761756 32.499991562804 3.2499983133921
166	782757 9149 832 182082 1.212137841273 33.712129711234 326 7 7 2282 15974
165	791906 9105 1070 181757 1.262218962049 33.662210763635 325 7 7 2275 15925
164	801011 485 5175 178063 2 33 32 0 0 0 0
163	801496 678 5175 178063 2 33 32 0.023297 0.02625 0.837047 0.021903687709
162	802174 485 5175 178063 2 33 32 7 7 224 1568
110	802659 10484 237 182108 1.11 33.72 328 0 20.019410339195 6279.6339073663 123702.21694141
111	813143 11401 237 182108 1.11 33.72 328 -8.5282297534717 0.032214803115416 -208.33364873679 1476.750844336
112	824544 5944 237 182108 1.11 33.72 328 5 5 1640 8200
113	830488 10507 237 182108 1.11 33.72 328 27.053941054301 43.604574204146 13428.546693211 552530.70428656
114	840995 10514 237 182108 1.11 33.72 328 87.059965896606 1423.826103679 252677.05845404 245542319.88628
115	851509 7256 237 182108 1.11 33.72 328 36.55 36.55 11988.4 438176.02
116	858765 10955 237 182108 1.11 33.72 328 -4.7341005920469 1.4321005839285 -152.10261508923 844.34843108366
117	869720 10305 237 182108 1.11 33.72 328 -5.325998061791 1.5066950663064 -177.99582101865 1153.104645591
118	880025 485 5173 178061 2 33 32 5 5 160 800
119	880510 678 5173 178061 2 33 32 0.023297 0.02625 0.837047 0.021903687709
120	881188 485 5173 178061 2 33 32 0 0 0 0
121	881673 9104 1058 181745 1.262218801938 33.662210663705 325 5 5 1625 8125
122	890777 9111 1244 181925 1.297504962048 33.697509824461 325 5 5 1625 8125
123	899888 13295 1058 181745 1.262218801938 33.662210663705 325 0.099999759934 0.100012761746 32.499991622985 3.2499983254283
124	913183 13308 1244 181925 1.297504962048 33.697509824461 325 0.099999759931 0.100012763424 32.500004623631 3.2500009257204
