file 1678941 1512141705                                         
version 2
run SinusoidalSpeedInjectionAttack-67-20171201-16:21:15-49084
attr CACCSpacing 20
attr attackAcc -30
attr attackPos 7
attr attackSpeed 0
attr attackStart 30
attr attacker 3
attr beaconInterval 0.1
attr configname SinusoidalSpeedInjectionAttack
attr controller 1
attr datetime 20171201-16:21:15
attr experiment SinusoidalSpeedInjectionAttack
attr fakeAcc "(3 == 4)"
attr fakePos "(3 == 2)"
attr fakeSpeed "(3 == 3)"
attr inifile omnetpp_67.ini
attr iterationvars "$attacker=3, $attackSpeed=0, $attackPos=7, $attackAcc=-30, $leaderSpeed=50, $controller=1, $CACCSpacing=20, $sController=\"CACC\", $attackStart=30, $0=20, $1=0, $nCars=8, $platoonSize=8, $nLanes=1, $beaconInterval=0.1, $priority=2, $packetSize=200, $ploegH=0.5, $leaderHeadway=1.2, $fakeSpeed=(3 == 3), $fakeAcc=(3 == 4), $fakePos=(3 == 2)"
attr iterationvarsf attacker=3,attackSpeed=0,attackPos=7,attackAcc=-30,leaderSpeed=50,controller=1,CACCSpacing=20,sController=CACC,attackStart=30,20,0,nCars=8,platoonSize=8,nLanes=1,beaconInterval=0.1,priority=2,packetSize=200,ploegH=0.5,leaderHeadway=1.2,fakeSpeed=(3_==_3),fakeAcc=(3_==_4),fakePos=(3_==_2)-
attr leaderHeadway 1.2
attr leaderSpeed 50
attr measurement "$attacker=3, $attackSpeed=0, $attackPos=7, $attackAcc=-30, $leaderSpeed=50, $controller=1, $CACCSpacing=20, $sController=\"CACC\", $attackStart=30, $0=20, $1=0, $nCars=8, $platoonSize=8, $nLanes=1, $beaconInterval=0.1, $priority=2, $packetSize=200, $ploegH=0.5, $leaderHeadway=1.2, $fakeSpeed=(3 == 3), $fakeAcc=(3 == 4), $fakePos=(3 == 2)"
attr nCars 8
attr nLanes 1
attr network scenario
attr packetSize 200
attr platoonSize 8
attr ploegH 0.5
attr priority 2
attr processid 49084
attr repetition 2
attr replication #2
attr resultdir results
attr runnumber 67
attr sController "\"CACC\""
attr seedset 2
param **.coreDebug false
param **.debug false
param **.headway 0.1s
param **.numberOfCars 8
param **.numberOfCarsPerPlatoon 8
param **.numberOfLanes 1
param **.numericController 1
param **.traffic.nCars 8
param **.traffic.nLanes 1
param **.traffic.platoonInsertDistance 20m
param **.traffic.platoonInsertHeadway 0s
param **.traffic.platoonInsertSpeed 50kmph
param **.traffic.platoonInsertTime "1 s"
param **.traffic.platoonLeaderHeadway 1.2s
param **.traffic.platoonSize 8
param **.traffic.platooningVType "\"vtypeauto\""
param **.traffic_type "\"PlatoonsTrafficManager\""
param *.**.nic.mac1609_4.bitrate 6Mbps
param *.**.nic.mac1609_4.txPower 100mW
param *.**.nic.mac1609_4.useServiceChannel false
param *.**.nic.phy80211p.analogueModels "xmldoc(\"config.xml\")"
param *.**.nic.phy80211p.decider "xmldoc(\"config.xml\")"
param *.**.nic.phy80211p.maxTXPower 100mW
param *.**.nic.phy80211p.sensitivity -94dBm
param *.**.nic.phy80211p.thermalNoise -95dBm
param *.**.nic.phy80211p.usePropagationDelay true
param *.**.nic.phy80211p.useThermalNoise true
param *.annotations.draw false
param *.connectionManager.alpha 2.0
param *.connectionManager.carrierFrequency "5.890e9 Hz"
param *.connectionManager.pMax 100mW
param *.connectionManager.sat -94dBm
param *.connectionManager.sendDirect true
param *.manager.autoShutdown true
param *.manager.commandLine "\"sumo --remote-port $port --seed $seed --configuration-file $configFile\""
param *.manager.configFile "\"./sumocfg/freeway.sumo.cfg\""
param *.manager.host "\"localhost\""
param *.manager.margin 25
param *.manager.moduleDisplayString "\"\""
param *.manager.moduleName "\"node\""
param *.manager.moduleType "\"Car\""
param *.manager.updateInterval 0.01s
param *.node[*].appl.attackStart 30s
param *.node[*].appl.attackerType 3
param *.node[*].appl.simulationDuration "60 s"
param *.node[*].appl_type "\"SimplePlatooningApp\""
param *.node[*].helper.nCars 8
param *.node[*].helper.nLanes 1
param *.node[*].helper.platoonSize 8
param *.node[*].helper_type "\"PositionHelper\""
param *.node[*].mobility.x 0
param *.node[*].mobility.y 0
param *.node[*].mobility.z 1.895
param *.node[*].prot.attackStart 30s
param *.node[*].prot.attackerType 3
param *.node[*].prot.attackingNode 3
param *.node[*].prot.beaconingInterval 0.1s
param *.node[*].prot.fakeAcc "(3 == 4)"
param *.node[*].prot.fakePos "(3 == 2)"
param *.node[*].prot.fakeSpeed "(3 == 3)"
param *.node[*].prot.maliciousAcc "-30 mpss"
param *.node[*].prot.maliciousSpeed 0kmph
param *.node[*].prot.packetSize 200
param *.node[*].prot.priority 2
param *.node[*].prot.shiftX "7 m"
param *.node[*].prot.useControllerAcceleration true
param *.node[*].protocol_type "\"SimplePlatooningBeaconing\""
param *.node[*].scenario.accHeadway 0.1s
param *.node[*].scenario.caccC1 0.5
param *.node[*].scenario.caccOmegaN "0.2 Hz"
param *.node[*].scenario.caccSpacing 20m
param *.node[*].scenario.caccXi 1
param *.node[*].scenario.controller "\"CACC\""
param *.node[*].scenario.engineTau "0.5 s"
param *.node[*].scenario.leaderHeadway 1.2s
param *.node[*].scenario.leaderSpeed 50kmph
param *.node[*].scenario.ploegH 0.5s
param *.node[*].scenario.ploegKd 0.7
param *.node[*].scenario.ploegKp 0.2
param *.node[*].scenario.useRealisticEngine false
param *.node[*].scenario_type "\"SinusoidalScenario\""
param *.node[*].unicast.packetLossRate 0
param *.obstacles.debug false
param *.playgroundSizeX 65000m
param *.playgroundSizeY 25000m
param *.playgroundSizeZ 50m
param *.world.use2D false
param *.world.useTorus false

vector 0  scenario.node[0].appl  distance  ETV
vector 1  scenario.node[0].appl  relativeSpeed  ETV
vector 2  scenario.node[0].appl  nodeId  ETV
vector 6  scenario.node[0].appl  acceleration  ETV
vector 7  scenario.node[0].appl  controllerAcceleration  ETV
vector 3  scenario.node[0].appl  speed  ETV
vector 4  scenario.node[0].appl  posx  ETV
vector 5  scenario.node[0].appl  posy  ETV
vector 22  scenario.node[1].appl  distance  ETV
vector 23  scenario.node[1].appl  relativeSpeed  ETV
vector 24  scenario.node[1].appl  nodeId  ETV
vector 28  scenario.node[1].appl  acceleration  ETV
vector 29  scenario.node[1].appl  controllerAcceleration  ETV
vector 25  scenario.node[1].appl  speed  ETV
vector 26  scenario.node[1].appl  posx  ETV
vector 27  scenario.node[1].appl  posy  ETV
vector 44  scenario.node[2].appl  distance  ETV
vector 45  scenario.node[2].appl  relativeSpeed  ETV
vector 46  scenario.node[2].appl  nodeId  ETV
vector 50  scenario.node[2].appl  acceleration  ETV
vector 51  scenario.node[2].appl  controllerAcceleration  ETV
vector 47  scenario.node[2].appl  speed  ETV
vector 48  scenario.node[2].appl  posx  ETV
vector 49  scenario.node[2].appl  posy  ETV
vector 66  scenario.node[3].appl  distance  ETV
vector 67  scenario.node[3].appl  relativeSpeed  ETV
vector 68  scenario.node[3].appl  nodeId  ETV
vector 72  scenario.node[3].appl  acceleration  ETV
vector 73  scenario.node[3].appl  controllerAcceleration  ETV
vector 69  scenario.node[3].appl  speed  ETV
vector 70  scenario.node[3].appl  posx  ETV
vector 71  scenario.node[3].appl  posy  ETV
vector 88  scenario.node[4].appl  distance  ETV
vector 89  scenario.node[4].appl  relativeSpeed  ETV
vector 90  scenario.node[4].appl  nodeId  ETV
vector 94  scenario.node[4].appl  acceleration  ETV
vector 95  scenario.node[4].appl  controllerAcceleration  ETV
vector 91  scenario.node[4].appl  speed  ETV
vector 92  scenario.node[4].appl  posx  ETV
vector 93  scenario.node[4].appl  posy  ETV
vector 110  scenario.node[5].appl  distance  ETV
vector 111  scenario.node[5].appl  relativeSpeed  ETV
vector 112  scenario.node[5].appl  nodeId  ETV
vector 116  scenario.node[5].appl  acceleration  ETV
vector 117  scenario.node[5].appl  controllerAcceleration  ETV
vector 113  scenario.node[5].appl  speed  ETV
vector 114  scenario.node[5].appl  posx  ETV
vector 115  scenario.node[5].appl  posy  ETV
vector 132  scenario.node[6].appl  distance  ETV
vector 133  scenario.node[6].appl  relativeSpeed  ETV
vector 134  scenario.node[6].appl  nodeId  ETV
vector 138  scenario.node[6].appl  acceleration  ETV
vector 139  scenario.node[6].appl  controllerAcceleration  ETV
vector 135  scenario.node[6].appl  speed  ETV
vector 136  scenario.node[6].appl  posx  ETV
vector 137  scenario.node[6].appl  posy  ETV
vector 154  scenario.node[7].appl  distance  ETV
vector 155  scenario.node[7].appl  relativeSpeed  ETV
vector 156  scenario.node[7].appl  nodeId  ETV
vector 160  scenario.node[7].appl  acceleration  ETV
vector 161  scenario.node[7].appl  controllerAcceleration  ETV
vector 157  scenario.node[7].appl  speed  ETV
vector 158  scenario.node[7].appl  posx  ETV
vector 159  scenario.node[7].appl  posy  ETV
vector 168  scenario.node[7].prot  frontDelay  ETV
vector 166  scenario.node[7].prot  frontDelayId  ETV
vector 146  scenario.node[6].prot  frontDelay  ETV
vector 144  scenario.node[6].prot  frontDelayId  ETV
vector 35  scenario.node[1].prot  leaderDelay  ETV
vector 33  scenario.node[1].prot  leaderDelayId  ETV
vector 36  scenario.node[1].prot  frontDelay  ETV
vector 34  scenario.node[1].prot  frontDelayId  ETV
vector 57  scenario.node[2].prot  leaderDelay  ETV
vector 55  scenario.node[2].prot  leaderDelayId  ETV
vector 79  scenario.node[3].prot  leaderDelay  ETV
vector 77  scenario.node[3].prot  leaderDelayId  ETV
vector 101  scenario.node[4].prot  leaderDelay  ETV
vector 99  scenario.node[4].prot  leaderDelayId  ETV
vector 123  scenario.node[5].prot  leaderDelay  ETV
vector 121  scenario.node[5].prot  leaderDelayId  ETV
vector 145  scenario.node[6].prot  leaderDelay  ETV
vector 143  scenario.node[6].prot  leaderDelayId  ETV
vector 167  scenario.node[7].prot  leaderDelay  ETV
vector 165  scenario.node[7].prot  leaderDelayId  ETV
vector 102  scenario.node[4].prot  frontDelay  ETV
vector 100  scenario.node[4].prot  frontDelayId  ETV
vector 80  scenario.node[3].prot  frontDelay  ETV
vector 78  scenario.node[3].prot  frontDelayId  ETV
vector 124  scenario.node[5].prot  frontDelay  ETV
vector 122  scenario.node[5].prot  frontDelayId  ETV
vector 58  scenario.node[2].prot  frontDelay  ETV
vector 56  scenario.node[2].prot  frontDelayId  ETV
vector 8  scenario.node[0].prot  nodeId  ETV
vector 9  scenario.node[0].prot  busyTime  ETV
vector 10  scenario.node[0].prot  collisions  ETV
vector 30  scenario.node[1].prot  nodeId  ETV
vector 31  scenario.node[1].prot  busyTime  ETV
vector 32  scenario.node[1].prot  collisions  ETV
vector 52  scenario.node[2].prot  nodeId  ETV
vector 53  scenario.node[2].prot  busyTime  ETV
vector 54  scenario.node[2].prot  collisions  ETV
vector 74  scenario.node[3].prot  nodeId  ETV
vector 75  scenario.node[3].prot  busyTime  ETV
vector 76  scenario.node[3].prot  collisions  ETV
vector 96  scenario.node[4].prot  nodeId  ETV
vector 97  scenario.node[4].prot  busyTime  ETV
vector 98  scenario.node[4].prot  collisions  ETV
vector 118  scenario.node[5].prot  nodeId  ETV
vector 119  scenario.node[5].prot  busyTime  ETV
vector 120  scenario.node[5].prot  collisions  ETV
vector 140  scenario.node[6].prot  nodeId  ETV
vector 141  scenario.node[6].prot  busyTime  ETV
vector 142  scenario.node[6].prot  collisions  ETV
vector 162  scenario.node[7].prot  nodeId  ETV
vector 163  scenario.node[7].prot  busyTime  ETV
vector 164  scenario.node[7].prot  collisions  ETV
7	11078 13860 232 328174 1.11 59.91 589 -1.5 1.5 -14.445969899918 993.24092361736
6	24938 18587 232 328174 1.11 59.91 589 -1.472274679513 1.4513434175798 -12.507264912644 675.29835211523
5	43525 12081 232 328174 1.11 59.91 589 36.55 36.55 21527.95 786846.5725
4	55606 17890 232 328174 1.11 59.91 589 204.28218421923 1025.2649827172 362921.40964264 256667933.95653
3	73496 17901 232 328174 1.11 59.91 589 12.599076970844 15.853603639796 8223.2832500118 115251.79065057
1	91397 9725 232 328174 1.11 59.91 589 0 0 0 0
0	101122 10314 232 328174 1.11 59.91 589 -1 -1 -589 589
2	111436 9725 232 328174 1.11 59.91 589 0 0 0 0
10	121161 858 5168 328662 2 60 59 0 0 0 0
9	122019 1154 5168 328662 2 60 59 0.023297 0.02625 1.545797 0.040508375209
8	123173 799 5168 328662 2 60 59 0 0 0 0
29	123972 17080 233 328175 1.11 59.91 589 -1.5201885302002 1.5215379200046 -16.62166992374 995.58727584902
28	141052 19172 233 328175 1.11 59.91 589 -1.4845166970579 1.4492363478547 -12.160480253553 675.5850600829
27	160224 12670 233 328175 1.11 59.91 589 36.55 36.55 21527.95 786846.5725
26	172894 18499 233 328175 1.11 59.91 589 180.28218421936 1001.2104662621 348728.42003738 239507563.97261
25	191393 18489 233 328175 1.11 59.91 589 12.593700960239 15.849344566939 8222.7536789342 115237.04028535
23	209882 20103 233 328175 1.11 59.91 589 -0.085666453968253 0.092346609178076 0.65464372670539 2.432917490974
22	229985 18494 233 328175 1.11 59.91 589 19.942679243784 20.230457319014 11836.979013839 237887.94121767
24	248479 10314 233 328175 1.11 59.91 589 1 1 589 589
36	258793 23702 1034 328420 1.262218481716 59.962220974026 588 0.09998722095 0.100012808484 58.800002253528 5.8800004539126
35	282495 23702 1034 328420 1.262218481716 59.962220974026 588 0.09998722095 0.100012808484 58.800002253528 5.8800004539126
34	306197 16111 1034 328420 1.262218481716 59.962220974026 588 1 1 588 588
33	322308 16111 1034 328420 1.262218481716 59.962220974026 588 1 1 588 588
32	338419 858 5169 328663 2 60 59 0 0 0 0
31	339277 1213 5169 328663 2 60 59 0.023296 0.02625 1.545796 0.040508328616
30	340490 858 5169 328663 2 60 59 1 1 59 59
51	341348 19044 234 328176 1.11 59.91 589 -1.4917898291341 1.4990053099557 -15.174462866186 962.21972670145
50	360392 19143 234 328176 1.11 59.91 589 -1.4755502010074 1.441587675785 -11.894522497857 670.56364715234
49	379535 12670 234 328176 1.11 59.91 589 36.55 36.55 21527.95 786846.5725
48	392205 18499 234 328176 1.11 59.91 589 156.28218421936 977.18368427318 334576.27546559 223085373.47904
47	410704 18499 234 328176 1.11 59.91 589 12.597121993093 15.844083349125 8222.4926841487 115225.90518284
45	429203 20343 234 328176 1.11 59.91 589 -0.017774646240298 0.0165781677547 0.38259958803602 0.0573155956417
44	449546 18484 234 328176 1.11 59.91 589 19.984493294671 20.070358956118 11796.139351897 236246.30788779
46	468030 10314 234 328176 1.11 59.91 589 2 2 1178 2356
58	478344 23715 1312 328701 1.302598202214 60.002601412034 588 0.09998739574 0.100012763807 58.800002971038 5.8800005973997
57	502059 23695 1040 328426 1.262218561772 59.962221054167 588 0.099987220946 0.10001280849 58.800002253613 5.8800004539296
56	525754 16118 1312 328701 1.302598202214 60.002601412034 588 2 2 1176 2352
55	541872 16107 1040 328426 1.262218561772 59.962221054167 588 2 2 1176 2352
54	557979 858 5170 328664 2 60 59 0 0 0 0
53	558837 1213 5170 328664 2 60 59 0.023297 0.02625 1.545797 0.040508375209
52	560050 858 5170 328664 2 60 59 2 2 118 236
73	560908 18993 235 328177 1.11 59.91 589 -1.5133685768604 1.5080594306659 -15.672890268258 986.36881143671
72	579901 19190 235 328177 1.11 59.91 589 -1.4653396864322 1.4364933077832 -11.753431347335 662.08108406871
71	599091 12670 235 328177 1.11 59.91 589 36.55 36.55 21527.95 786846.5725
70	611761 18491 235 328177 1.11 59.91 589 132.28219184875 953.20669433994 320446.67291552 207373437.11616
69	630252 18483 235 328177 1.11 59.91 589 12.605808640956 15.835137867499 8222.7285311576 115227.37211126
67	648735 20559 235 328177 1.11 59.91 589 -0.015548639735037 0.011230169041433 -0.11690178396639 0.020984442763939
66	669294 18486 235 328177 1.11 59.91 589 19.96213031092 20.035282210702 11773.607267012 235344.50033985
68	687780 10314 235 328177 1.11 59.91 589 3 3 1767 5301
80	698094 23710 1176 328556 1.287874801937 59.987877294093 588 0.099987391807 0.100012763801 58.800002253374 5.8800004538672
79	721804 23688 1046 328432 1.262218641827 59.962221134143 588 0.099987220945 0.100012808497 58.800002253534 5.8800004539138
78	745492 16126 1176 328556 1.287874801937 59.987877294093 588 3 3 1764 5292
77	761618 16115 1046 328432 1.262218641827 59.962221134143 588 3 3 1764 5292
76	777733 858 5171 328665 2 60 59 0 0 0 0
75	778591 1213 5171 328665 2 60 59 0.023297 0.02625 1.545797 0.040508375209
74	779804 858 5171 328665 2 60 59 3 3 177 531
95	780662 17900 236 328178 1.11 59.91 589 -3.0856498353805 1.5 -15.95586388864 989.4919333231
94	798562 19206 236 328178 1.11 59.91 589 -2.5399108667045 1.4841134869068 -12.177324640394 711.41294226617
93	817768 12670 236 328178 1.11 59.91 589 36.55 36.55 21527.95 786846.5725
92	830438 18487 236 328178 1.11 59.91 589 108.28219184875 821.64747256637 284154.75673124 159955375.09359
91	848925 18497 236 328178 1.11 59.91 589 4.1624035426235 15.824933497305 7147.1209531651 91768.159390571
89	867422 19636 236 328178 1.11 59.91 589 -0.013442529912858 8.5339811675583 1075.725112306 6540.210387777
88	887058 18486 236 328178 1.11 59.91 589 19.979107556697 127.55814903537 33914.404032718 3152108.7229796
90	905544 10314 236 328178 1.11 59.91 589 4 4 2356 9424
102	915858 24282 1108 328506 1.276580721882 59.976583572985 588 0.099987393777 0.100012763824 58.800002612321 5.8800005256563
101	940140 24298 1052 328438 1.262218721883 59.962221572984 588 0.099987223567 0.100012810415 58.800002612319 5.8800005256708
100	964438 16696 1108 328506 1.276580721882 59.976583572985 588 4 4 2352 9408
99	981134 16117 1052 328438 1.262218721883 59.962221572984 588 4 4 2352 9408
98	997251 858 5172 328666 2 60 59 0 0 0 0
97	998109 1213 5172 328666 2 60 59 0.023297 0.02625 1.545797 0.040508375209
96	999322 858 5172 328666 2 60 59 4 4 236 944
117	1000180 19120 237 328179 1.11 59.91 589 -2.8855170619712 1.7668392724513 -18.110200875579 987.69283033411
116	1019300 19814 237 328179 1.11 59.91 589 -2.4416173281054 1.6783975738855 -15.34343348308 687.55017303708
115	1039114 13259 237 328179 1.11 59.91 589 36.55 36.55 21527.95 786846.5725
114	1052373 19077 237 328179 1.11 59.91 589 84.282188034058 799.37977173084 272581.71733411 149766806.40356
113	1071450 19073 237 328179 1.11 59.91 589 6.2786951080506 15.826796404689 7164.3319371209 91092.479875322
111	1090523 20255 237 328179 1.11 59.91 589 -2.911851906596 1.1507743812302 -17.089210709307 444.95648522431
110	1110778 19079 237 328179 1.11 59.91 589 4.3177649003567 20.019410409218 9217.3836168126 162513.13671904
112	1129857 10903 237 328179 1.11 59.91 589 5 5 2945 14725
124	1140760 24302 1244 328624 1.297504962048 59.997507807299 588 0.099987364371 0.100012763424 58.800002606469 5.8800005244887
123	1165062 24294 1058 328444 1.262218801938 59.962221647314 588 0.099987223281 0.100012809572 58.800002606594 5.8800005245258
122	1189356 16709 1244 328624 1.297504962048 59.997507807299 588 5 5 2940 14700
121	1206065 16705 1058 328444 1.262218801938 59.962221647314 588 5 5 2940 14700
120	1222770 917 5173 328667 2 60 59 0 0 0 0
119	1223687 1272 5173 328667 2 60 59 0.023297 0.02625 1.545797 0.040508375209
118	1224959 917 5173 328667 2 60 59 5 5 295 1475
139	1225876 19701 238 328180 1.11 59.91 589 -2.5314538910954 1.7911598182523 -22.484469337572 979.82205174658
138	1245577 19811 238 328180 1.11 59.91 589 -2.2834913889213 1.7186320979688 -19.503099430344 687.38517501371
137	1265388 13259 238 328180 1.11 59.91 589 36.55 36.55 21527.95 786846.5725
136	1278647 19080 238 328180 1.11 59.91 589 60.282188034058 778.46823625066 260929.7902449 140051642.69966
135	1297727 19084 238 328180 1.11 59.91 589 6.7539396843242 15.830717199506 7195.071522328 91184.712583691
133	1316811 20458 238 328180 1.11 59.91 589 -2.013354197652 0.87859226642063 -30.586150872279 277.7218415435
132	1337269 19070 238 328180 1.11 59.91 589 6.2565749951452 20.027592313754 9296.5418809134 162160.10065329
134	1356339 10903 238 328180 1.11 59.91 589 6 6 3534 21204
146	1367242 24277 970 328350 1.247596081439 59.94759821009 588 0.099987337327 0.100012762725 58.800001889869 5.8800003811704
145	1391519 24302 1064 328450 1.262218881993 59.962221717137 588 0.099987222863 0.100012809091 58.800002596362 5.8800005224794
144	1415821 16703 970 328350 1.247596081439 59.94759821009 588 6 6 3528 21168
143	1432524 16711 1064 328450 1.262218881993 59.962221717137 588 6 6 3528 21168
142	1449235 917 5174 328668 2 60 59 0 0 0 0
141	1450152 1272 5174 328668 2 60 59 0.023297 0.02625 1.545797 0.040508375209
140	1451424 917 5174 328668 2 60 59 6 6 354 2124
161	1452341 19674 239 328181 1.11 59.91 589 -2.2125442505365 1.7713701206961 -27.259940422899 959.42989202234
160	1472015 19809 239 328181 1.11 59.91 589 -2.1196662014937 1.7153876969603 -24.366476139905 679.87283070891
159	1491824 13259 239 328181 1.11 59.91 589 36.55 36.55 21527.95 786846.5725
158	1505083 19101 239 328181 1.11 59.91 589 36.282188987732 758.87070670603 249139.21073289 130725278.45393
157	1524184 19098 239 328181 1.11 59.91 589 7.5648053246451 15.825600952068 7238.9258415639 91833.154423101
155	1543282 20530 239 328181 1.11 59.91 589 -1.4446189114402 0.66739120010182 -43.659288241642 184.50002251733
154	1563812 19097 239 328181 1.11 59.91 589 7.5441145161897 20.013502933043 9435.4565983872 164491.61127659
156	1582909 10903 239 328181 1.11 59.91 589 7 7 4123 28861
168	1593812 24299 832 328212 1.212137841273 59.912127005141 588 0.099987448624 0.100012762793 58.799988925086 5.879997788041
167	1618111 24295 1070 328456 1.262218962049 59.962221782589 588 0.099987222434 0.100012808819 58.800002581758 5.8800005195586
166	1642406 16720 832 328212 1.212137841273 59.912127005141 588 7 7 4116 28812
165	1659126 16709 1070 328456 1.262218962049 59.962221782589 588 7 7 4116 28812
164	1675835 917 5175 328669 2 60 59 0 0 0 0
163	1676752 1272 5175 328669 2 60 59 0.023297 0.02625 1.545797 0.040508375209
162	1678024 917 5175 328669 2 60 59 7 7 413 2891
