file 921227 1512141495                                          
version 2
run SinusoidalSpeedInjectionAttack-28-20171201-16:17:58-10099
attr CACCSpacing 20
attr attackAcc -30
attr attackPos 7
attr attackSpeed -50
attr attackStart 30
attr attacker 3
attr beaconInterval 0.1
attr configname SinusoidalSpeedInjectionAttack
attr controller 1
attr datetime 20171201-16:17:58
attr experiment SinusoidalSpeedInjectionAttack
attr fakeAcc "(3 == 4)"
attr fakePos "(3 == 2)"
attr fakeSpeed "(3 == 3)"
attr inifile omnetpp_28.ini
attr iterationvars "$attacker=3, $attackSpeed=-50, $attackPos=7, $attackAcc=-30, $leaderSpeed=100, $controller=1, $CACCSpacing=20, $sController=\"CACC\", $attackStart=30, $0=20, $1=0, $nCars=8, $platoonSize=8, $nLanes=1, $beaconInterval=0.1, $priority=2, $packetSize=200, $ploegH=0.5, $leaderHeadway=1.2, $fakeSpeed=(3 == 3), $fakeAcc=(3 == 4), $fakePos=(3 == 2)"
attr iterationvarsf attacker=3,attackSpeed=-50,attackPos=7,attackAcc=-30,leaderSpeed=100,controller=1,CACCSpacing=20,sController=CACC,attackStart=30,20,0,nCars=8,platoonSize=8,nLanes=1,beaconInterval=0.1,priority=2,packetSize=200,ploegH=0.5,leaderHeadway=1.2,fakeSpeed=(3_==_3),fakeAcc=(3_==_4),fakePos=(3_==_2)-
attr leaderHeadway 1.2
attr leaderSpeed 100
attr measurement "$attacker=3, $attackSpeed=-50, $attackPos=7, $attackAcc=-30, $leaderSpeed=100, $controller=1, $CACCSpacing=20, $sController=\"CACC\", $attackStart=30, $0=20, $1=0, $nCars=8, $platoonSize=8, $nLanes=1, $beaconInterval=0.1, $priority=2, $packetSize=200, $ploegH=0.5, $leaderHeadway=1.2, $fakeSpeed=(3 == 3), $fakeAcc=(3 == 4), $fakePos=(3 == 2)"
attr nCars 8
attr nLanes 1
attr network scenario
attr packetSize 200
attr platoonSize 8
attr ploegH 0.5
attr priority 2
attr processid 10099
attr repetition 3
attr replication #3
attr resultdir results
attr runnumber 28
attr sController "\"CACC\""
attr seedset 3
param **.coreDebug false
param **.debug false
param **.headway 0.1s
param **.numberOfCars 8
param **.numberOfCarsPerPlatoon 8
param **.numberOfLanes 1
param **.numericController 1
param **.traffic.nCars 8
param **.traffic.nLanes 1
param **.traffic.platoonInsertDistance 20m
param **.traffic.platoonInsertHeadway 0s
param **.traffic.platoonInsertSpeed 100kmph
param **.traffic.platoonInsertTime "1 s"
param **.traffic.platoonLeaderHeadway 1.2s
param **.traffic.platoonSize 8
param **.traffic.platooningVType "\"vtypeauto\""
param **.traffic_type "\"PlatoonsTrafficManager\""
param *.**.nic.mac1609_4.bitrate 6Mbps
param *.**.nic.mac1609_4.txPower 100mW
param *.**.nic.mac1609_4.useServiceChannel false
param *.**.nic.phy80211p.analogueModels "xmldoc(\"config.xml\")"
param *.**.nic.phy80211p.decider "xmldoc(\"config.xml\")"
param *.**.nic.phy80211p.maxTXPower 100mW
param *.**.nic.phy80211p.sensitivity -94dBm
param *.**.nic.phy80211p.thermalNoise -95dBm
param *.**.nic.phy80211p.usePropagationDelay true
param *.**.nic.phy80211p.useThermalNoise true
param *.annotations.draw false
param *.connectionManager.alpha 2.0
param *.connectionManager.carrierFrequency "5.890e9 Hz"
param *.connectionManager.pMax 100mW
param *.connectionManager.sat -94dBm
param *.connectionManager.sendDirect true
param *.manager.autoShutdown true
param *.manager.commandLine "\"sumo --remote-port $port --seed $seed --configuration-file $configFile\""
param *.manager.configFile "\"./sumocfg/freeway.sumo.cfg\""
param *.manager.host "\"localhost\""
param *.manager.margin 25
param *.manager.moduleDisplayString "\"\""
param *.manager.moduleName "\"node\""
param *.manager.moduleType "\"Car\""
param *.manager.updateInterval 0.01s
param *.node[*].appl.attackStart 30s
param *.node[*].appl.attackerType 3
param *.node[*].appl.simulationDuration "60 s"
param *.node[*].appl_type "\"SimplePlatooningApp\""
param *.node[*].helper.nCars 8
param *.node[*].helper.nLanes 1
param *.node[*].helper.platoonSize 8
param *.node[*].helper_type "\"PositionHelper\""
param *.node[*].mobility.x 0
param *.node[*].mobility.y 0
param *.node[*].mobility.z 1.895
param *.node[*].prot.attackStart 30s
param *.node[*].prot.attackerType 3
param *.node[*].prot.attackingNode 3
param *.node[*].prot.beaconingInterval 0.1s
param *.node[*].prot.fakeAcc "(3 == 4)"
param *.node[*].prot.fakePos "(3 == 2)"
param *.node[*].prot.fakeSpeed "(3 == 3)"
param *.node[*].prot.maliciousAcc "-30 mpss"
param *.node[*].prot.maliciousSpeed -50kmph
param *.node[*].prot.packetSize 200
param *.node[*].prot.priority 2
param *.node[*].prot.shiftX "7 m"
param *.node[*].prot.useControllerAcceleration true
param *.node[*].protocol_type "\"SimplePlatooningBeaconing\""
param *.node[*].scenario.accHeadway 0.1s
param *.node[*].scenario.caccC1 0.5
param *.node[*].scenario.caccOmegaN "0.2 Hz"
param *.node[*].scenario.caccSpacing 20m
param *.node[*].scenario.caccXi 1
param *.node[*].scenario.controller "\"CACC\""
param *.node[*].scenario.engineTau "0.5 s"
param *.node[*].scenario.leaderHeadway 1.2s
param *.node[*].scenario.leaderSpeed 100kmph
param *.node[*].scenario.ploegH 0.5s
param *.node[*].scenario.ploegKd 0.7
param *.node[*].scenario.ploegKp 0.2
param *.node[*].scenario.useRealisticEngine false
param *.node[*].scenario_type "\"SinusoidalScenario\""
param *.node[*].unicast.packetLossRate 0
param *.obstacles.debug false
param *.playgroundSizeX 65000m
param *.playgroundSizeY 25000m
param *.playgroundSizeZ 50m
param *.world.use2D false
param *.world.useTorus false

vector 0  scenario.node[0].appl  distance  ETV
vector 1  scenario.node[0].appl  relativeSpeed  ETV
vector 2  scenario.node[0].appl  nodeId  ETV
vector 6  scenario.node[0].appl  acceleration  ETV
vector 7  scenario.node[0].appl  controllerAcceleration  ETV
vector 3  scenario.node[0].appl  speed  ETV
vector 4  scenario.node[0].appl  posx  ETV
vector 5  scenario.node[0].appl  posy  ETV
vector 22  scenario.node[1].appl  distance  ETV
vector 23  scenario.node[1].appl  relativeSpeed  ETV
vector 24  scenario.node[1].appl  nodeId  ETV
vector 28  scenario.node[1].appl  acceleration  ETV
vector 29  scenario.node[1].appl  controllerAcceleration  ETV
vector 25  scenario.node[1].appl  speed  ETV
vector 26  scenario.node[1].appl  posx  ETV
vector 27  scenario.node[1].appl  posy  ETV
vector 44  scenario.node[2].appl  distance  ETV
vector 45  scenario.node[2].appl  relativeSpeed  ETV
vector 46  scenario.node[2].appl  nodeId  ETV
vector 50  scenario.node[2].appl  acceleration  ETV
vector 51  scenario.node[2].appl  controllerAcceleration  ETV
vector 47  scenario.node[2].appl  speed  ETV
vector 48  scenario.node[2].appl  posx  ETV
vector 49  scenario.node[2].appl  posy  ETV
vector 66  scenario.node[3].appl  distance  ETV
vector 67  scenario.node[3].appl  relativeSpeed  ETV
vector 68  scenario.node[3].appl  nodeId  ETV
vector 72  scenario.node[3].appl  acceleration  ETV
vector 73  scenario.node[3].appl  controllerAcceleration  ETV
vector 69  scenario.node[3].appl  speed  ETV
vector 70  scenario.node[3].appl  posx  ETV
vector 71  scenario.node[3].appl  posy  ETV
vector 88  scenario.node[4].appl  distance  ETV
vector 89  scenario.node[4].appl  relativeSpeed  ETV
vector 90  scenario.node[4].appl  nodeId  ETV
vector 94  scenario.node[4].appl  acceleration  ETV
vector 95  scenario.node[4].appl  controllerAcceleration  ETV
vector 91  scenario.node[4].appl  speed  ETV
vector 92  scenario.node[4].appl  posx  ETV
vector 93  scenario.node[4].appl  posy  ETV
vector 110  scenario.node[5].appl  distance  ETV
vector 111  scenario.node[5].appl  relativeSpeed  ETV
vector 112  scenario.node[5].appl  nodeId  ETV
vector 116  scenario.node[5].appl  acceleration  ETV
vector 117  scenario.node[5].appl  controllerAcceleration  ETV
vector 113  scenario.node[5].appl  speed  ETV
vector 114  scenario.node[5].appl  posx  ETV
vector 115  scenario.node[5].appl  posy  ETV
vector 132  scenario.node[6].appl  distance  ETV
vector 133  scenario.node[6].appl  relativeSpeed  ETV
vector 134  scenario.node[6].appl  nodeId  ETV
vector 138  scenario.node[6].appl  acceleration  ETV
vector 139  scenario.node[6].appl  controllerAcceleration  ETV
vector 135  scenario.node[6].appl  speed  ETV
vector 136  scenario.node[6].appl  posx  ETV
vector 137  scenario.node[6].appl  posy  ETV
vector 154  scenario.node[7].appl  distance  ETV
vector 155  scenario.node[7].appl  relativeSpeed  ETV
vector 156  scenario.node[7].appl  nodeId  ETV
vector 160  scenario.node[7].appl  acceleration  ETV
vector 161  scenario.node[7].appl  controllerAcceleration  ETV
vector 157  scenario.node[7].appl  speed  ETV
vector 158  scenario.node[7].appl  posx  ETV
vector 159  scenario.node[7].appl  posy  ETV
vector 35  scenario.node[1].prot  leaderDelay  ETV
vector 33  scenario.node[1].prot  leaderDelayId  ETV
vector 36  scenario.node[1].prot  frontDelay  ETV
vector 34  scenario.node[1].prot  frontDelayId  ETV
vector 57  scenario.node[2].prot  leaderDelay  ETV
vector 55  scenario.node[2].prot  leaderDelayId  ETV
vector 79  scenario.node[3].prot  leaderDelay  ETV
vector 77  scenario.node[3].prot  leaderDelayId  ETV
vector 101  scenario.node[4].prot  leaderDelay  ETV
vector 99  scenario.node[4].prot  leaderDelayId  ETV
vector 123  scenario.node[5].prot  leaderDelay  ETV
vector 121  scenario.node[5].prot  leaderDelayId  ETV
vector 145  scenario.node[6].prot  leaderDelay  ETV
vector 143  scenario.node[6].prot  leaderDelayId  ETV
vector 167  scenario.node[7].prot  leaderDelay  ETV
vector 165  scenario.node[7].prot  leaderDelayId  ETV
vector 168  scenario.node[7].prot  frontDelay  ETV
vector 166  scenario.node[7].prot  frontDelayId  ETV
vector 58  scenario.node[2].prot  frontDelay  ETV
vector 56  scenario.node[2].prot  frontDelayId  ETV
vector 124  scenario.node[5].prot  frontDelay  ETV
vector 122  scenario.node[5].prot  frontDelayId  ETV
vector 80  scenario.node[3].prot  frontDelay  ETV
vector 78  scenario.node[3].prot  frontDelayId  ETV
vector 146  scenario.node[6].prot  frontDelay  ETV
vector 144  scenario.node[6].prot  frontDelayId  ETV
vector 102  scenario.node[4].prot  frontDelay  ETV
vector 100  scenario.node[4].prot  frontDelayId  ETV
vector 8  scenario.node[0].prot  nodeId  ETV
vector 9  scenario.node[0].prot  busyTime  ETV
vector 10  scenario.node[0].prot  collisions  ETV
vector 30  scenario.node[1].prot  nodeId  ETV
vector 31  scenario.node[1].prot  busyTime  ETV
vector 32  scenario.node[1].prot  collisions  ETV
vector 52  scenario.node[2].prot  nodeId  ETV
vector 53  scenario.node[2].prot  busyTime  ETV
vector 54  scenario.node[2].prot  collisions  ETV
vector 74  scenario.node[3].prot  nodeId  ETV
vector 75  scenario.node[3].prot  busyTime  ETV
vector 76  scenario.node[3].prot  collisions  ETV
vector 96  scenario.node[4].prot  nodeId  ETV
vector 97  scenario.node[4].prot  busyTime  ETV
vector 98  scenario.node[4].prot  collisions  ETV
vector 118  scenario.node[5].prot  nodeId  ETV
vector 119  scenario.node[5].prot  busyTime  ETV
vector 120  scenario.node[5].prot  collisions  ETV
vector 140  scenario.node[6].prot  nodeId  ETV
vector 141  scenario.node[6].prot  busyTime  ETV
vector 142  scenario.node[6].prot  collisions  ETV
vector 162  scenario.node[7].prot  nodeId  ETV
vector 163  scenario.node[7].prot  busyTime  ETV
vector 164  scenario.node[7].prot  collisions  ETV
7	11094 7732 232 180918 1.11 33.51 325 -1.5 1.5 -1.2539813132655 516.30984025099
6	18826 10201 232 180918 1.11 33.51 325 -1.4722746794938 1.451340770512 5.2966617581671 342.92524460201
5	29027 6537 232 180918 1.11 33.51 325 36.55 36.55 11878.75 434168.3125
4	35564 9756 232 180918 1.11 33.51 325 210.1237403867 1114.9725204622 215564.69398155 165238407.01181
3	45320 9752 232 180918 1.11 33.51 325 26.488037261118 29.742492528104 9076.4603275269 253723.3768276
1	55072 5237 232 180918 1.11 33.51 325 0 0 0 0
0	60309 5562 232 180918 1.11 33.51 325 -1 -1 -325 325
2	65871 5237 232 180918 1.11 33.51 325 0 0 0 0
10	71108 453 5056 177944 2 33 32 0 0 0 0
9	71561 831 5056 177944 2 33 32 0.022755747372 0.026262189362 0.836516077528 0.021879304283496
8	72392 421 5056 177944 2 33 32 0 0 0 0
29	72813 9536 233 180919 1.11 33.51 325 -1.5201885305329 1.5215379202346 -0.6728547261483 516.00272707806
28	82349 10509 233 180919 1.11 33.51 325 -1.4845166976844 1.4492363479558 6.1264220307052 342.40655560929
27	92858 6862 233 180919 1.11 33.51 325 36.55 36.55 11878.75 434168.3125
26	99720 10081 233 180919 1.11 33.51 325 186.12374038696 1090.8060181137 207743.45015571 155045165.51677
25	109801 10082 233 180919 1.11 33.51 325 26.48258984786 29.73823345156 9074.8255584723 253632.93359455
23	119883 11008 233 180919 1.11 33.51 325 -0.081527958132408 0.09234661028168 1.5818024370225 1.2299643053199
22	130891 10084 233 180919 1.11 33.51 325 19.942679175015 20.212890321102 6521.2111304607 130851.38274176
24	140975 5562 233 180919 1.11 33.51 325 1 1 325 325
36	146537 12863 836 180409 1.269559161495 33.469564617278 323 0.099987080745 0.100000545925 32.300005537223 3.2300011077829
35	159400 12863 836 180409 1.269559161495 33.469564617278 323 0.099987080745 0.100000545925 32.300005537223 3.2300011077829
34	172263 8730 836 180409 1.269559161495 33.469564617278 323 1 1 323 323
33	180993 8730 836 180409 1.269559161495 33.469564617278 323 1 1 323 323
32	189723 453 5057 177945 2 33 32 0 0 0 0
31	190176 857 5057 177945 2 33 32 0.022755827428 0.026262189695 0.836516158262 0.021879307962578
30	191033 453 5057 177945 2 33 32 1 1 32 32
51	191486 9374 234 180920 1.11 33.51 325 -1.5268714797433 1.5218527223985 -1.0408953446316 516.37741121098
50	200860 10534 234 180920 1.11 33.51 325 -1.4757144530289 1.4406976854907 6.2808611147833 339.06194493946
49	211394 6862 234 180920 1.11 33.51 325 36.55 36.55 11878.75 434168.3125
48	218256 10076 234 180920 1.11 33.51 325 162.12374038696 1066.7408910137 199934.42213237 145246748.87536
47	228332 10062 234 180920 1.11 33.51 325 26.486567370713 29.731244925024 9074.1785895 253594.54149713
45	238394 11229 234 180920 1.11 33.51 325 -0.0098541922603808 0.013218816456234 0.58570475201353 0.011394448810707
44	249623 10069 234 180920 1.11 33.51 325 19.996915730618 20.069185436033 6509.0150839635 130360.99232763
46	259692 5562 234 180920 1.11 33.51 325 2 2 650 1300
58	265254 12863 1046 180613 1.299191202215 33.499183705191 323 0.099987083066 0.100000549274 32.299992584416 3.2299985173768
57	278117 12857 842 180415 1.269559241551 33.469564697552 323 0.099987080748 0.100000545921 32.300005537441 3.2300011078265
56	290974 8729 1046 180613 1.299191202215 33.499183705191 323 2 2 646 1292
55	299703 8727 842 180415 1.269559241551 33.469564697552 323 2 2 646 1292
54	308430 453 5058 177946 2 33 32 0 0 0 0
53	308883 860 5058 177946 2 33 32 0.022755907483 0.026262189765 0.836516238548 0.02187931161815
52	309743 453 5058 177946 2 33 32 2 2 64 128
73	310196 10425 235 180921 1.11 33.51 325 -1.4873962137024 1.4906490651251 0.75259372765877 486.21550370871
72	320621 10492 235 180921 1.11 33.51 325 -1.462903729573 1.4323718934072 6.5655683139266 333.60422764901
71	331113 6862 235 180921 1.11 33.51 325 36.55 36.55 11878.75 434168.3125
70	337975 10075 235 180921 1.11 33.51 325 138.12373275757 1042.7402953073 192138.45147823 135844240.35928
69	348050 10065 235 180921 1.11 33.51 325 26.497257204844 29.722404727259 9074.1820129133 253591.3815738
67	358115 11012 235 180921 1.11 33.51 325 -0.037916123784164 0.029305426055323 -0.066232024493821 0.12309023318273
66	369127 10082 235 180921 1.11 33.51 325 19.934505806172 20.063152462656 6495.9707226046 129839.17473875
68	379209 5562 235 180921 1.11 33.51 325 3 3 975 2925
80	384771 12855 1180 180748 1.300212602492 33.500205391999 323 0.099987080261 0.10000056455 32.299992870947 3.2299985746857
79	397626 12868 848 180421 1.269559321606 33.469564777614 323 0.099987080752 0.100000545913 32.300005537448 3.2300011078279
78	410494 8735 1180 180748 1.300212602492 33.500205391999 323 3 3 969 2907
77	419229 8739 848 180421 1.269559321606 33.469564777614 323 3 3 969 2907
76	427968 453 5059 177947 2 33 32 0 0 0 0
75	428421 863 5059 177947 2 33 32 0.022754827428 0.026262189643 0.836515158458 0.02187926246221
74	429284 453 5059 177947 2 33 32 3 3 96 288
95	429737 10430 236 180922 1.11 33.51 325 -11.146500282675 1.4843451593591 -241.180846905 2056.7961732094
94	440167 10496 236 180922 1.11 33.51 325 -8.0637342331098 1.42521091894 -225.75025030042 1660.3061100292
93	450663 6862 236 180922 1.11 33.51 325 36.55 36.55 11878.75 434168.3125
92	457525 10078 236 180922 1.11 33.51 325 114.12373275757 975.32986701623 183822.01741235 125794450.30619
91	467603 10083 236 180922 1.11 33.51 325 5.3738755251493 29.71189911739 8631.9634575277 235970.74531822
89	477686 11102 236 180922 1.11 33.51 325 -0.012670728228461 23.124490160068 442.15289970254 7540.7402649013
88	488788 10048 236 180922 1.11 33.51 325 19.97019422231 62.948170839709 7007.5896947761 164083.27345443
90	498836 5562 236 180922 1.11 33.51 325 4 4 1300 5200
102	504398 13176 1312 180892 1.306018002769 33.506076093827 323 0.099909080079 0.10009108144 32.299993172498 3.2299992015176
101	517574 13190 854 180427 1.269559401662 33.469564998623 323 0.099987080753 0.10000055353 32.300005678401 3.2300011360186
100	530764 9051 1312 180892 1.306018002769 33.506076093827 323 4 4 1292 5168
99	539815 8736 854 180427 1.269559401662 33.469564998623 323 4 4 1292 5168
98	548551 453 5060 177948 2 33 32 0 0 0 0
97	549004 861 5060 177948 2 33 32 0.022755747372 0.026262189601 0.836515972157 0.021879298750472
96	549865 453 5060 177948 2 33 32 4 4 128 512
139	550318 10768 238 180924 1.11 33.51 325 -4.3442059821062 1.4845553064095 -100.29904424264 688.00463225035
138	561086 10829 238 180924 1.11 33.51 325 -3.9877154029668 1.427573253622 -82.929465225582 476.17897763404
137	571915 7187 238 180924 1.11 33.51 325 36.55 36.55 11878.75 434168.3125
136	579102 10391 238 180924 1.11 33.51 325 66.123736572266 957.37311755626 168599.49525739 109597868.84648
135	589493 10398 238 180924 1.11 33.51 325 19.654782584368 29.71058107327 8937.3961973672 246595.41702292
133	599891 11245 238 180924 1.11 33.51 325 -5.5694234171292 0.045486158174484 -105.18722464702 439.14767388091
132	611136 10380 238 180924 1.11 33.51 325 9.6511758163689 20.031055657003 6379.1292172357 125951.79552001
134	621516 5887 238 180924 1.11 33.51 325 6 6 1950 11700
146	627403 13186 1249 180823 1.305604842658 33.505610675977 323 0.099987081777 0.100000567443 32.300005914759 3.2300011832866
145	640589 13172 866 180439 1.269559561772 33.469565060901 323 0.099987080748 0.100000548778 32.300005580569 3.2300011164521
144	653761 9061 1249 180823 1.305604842658 33.505610675977 323 6 6 1938 11628
143	662822 9043 866 180439 1.269559561772 33.469565060901 323 6 6 1938 11628
142	671865 485 5062 177950 2 33 32 0 0 0 0
141	672350 894 5062 177950 2 33 32 0.022755587261 0.026262189691 0.836515887796 0.021879295441194
140	673244 485 5062 177950 2 33 32 6 6 192 1152
161	673729 10688 239 180925 1.11 33.51 325 -3.6475213842895 1.5011641343819 -64.8793611169 591.22763507126
160	684417 10866 239 180925 1.11 33.51 325 -3.2430368616883 1.4252036246116 -46.339901331721 369.04276673934
159	695283 7187 239 180925 1.11 33.51 325 36.55 36.55 11878.75 434168.3125
158	702470 10398 239 180925 1.11 33.51 325 42.123735618591 939.62089747656 160871.5433457 101824885.08344
157	712868 10405 239 180925 1.11 33.51 325 23.287669323294 29.707520482332 9001.1518058464 249663.25839069
155	723273 11565 239 180925 1.11 33.51 325 -3.5930095848972 0.0037105005977089 -62.926313826963 159.60632969388
154	734838 10400 239 180925 1.11 33.51 325 13.824877814475 20.018772038188 6429.2270238594 127439.24192361
156	745238 5887 239 180925 1.11 33.51 325 7 7 2275 15925
168	751125 13186 980 180553 1.292108801938 33.492101239877 323 0.09998708144 0.100000545198 32.299992519379 3.2299985043746
167	764311 13191 872 180445 1.269559641828 33.469565120721 323 0.09998708075 0.100000547589 32.300005560333 3.2300011124049
166	777502 9059 980 180553 1.292108801938 33.492101239877 323 7 7 2261 15827
165	786561 9064 872 180445 1.269559641828 33.469565120721 323 7 7 2261 15827
164	795625 485 5063 177951 2 33 32 0 0 0 0
163	796110 891 5063 177951 2 33 32 0.022755507206 0.026262189656 0.836515822625 0.021879292579368
162	797001 485 5063 177951 2 33 32 7 7 224 1568
110	797486 10424 237 180936 1.11 33.56 326 0 20.014445358085 6249.5015925138 123100.62459329
111	807910 11323 237 180936 1.11 33.56 326 -8.651471513899 0.017660650194262 -205.19527516017 1465.1484630408
112	819233 5906 237 180936 1.11 33.56 326 5 5 1630 8150
113	825139 10428 237 180936 1.11 33.56 326 13.808747407953 29.704009596868 8844.6236333793 242360.25865869
114	835567 10443 237 180936 1.11 33.56 326 90.123736572266 971.60471434923 177248.09756275 118585837.23202
115	846010 7210 237 180936 1.11 33.56 326 36.55 36.55 11915.3 435504.215
116	853220 10872 237 180936 1.11 33.56 326 -4.7185843025582 1.4211527163312 -143.99611439311 804.69078902221
117	864092 10815 237 180936 1.11 33.56 326 -5.2682102464239 1.5026796583025 -170.56767572755 1117.6583575408
118	874907 485 5061 177949 2 33 32 5 5 160 800
119	875392 892 5061 177949 2 33 32 0.022754667317 0.026262189611 0.836514942368 0.021879252236136
120	876284 485 5061 177949 2 33 32 0 0 0 0
121	876769 9053 860 180433 1.269559481717 33.469565014805 323 5 5 1615 8075
122	885822 9051 1112 180679 1.299591442381 33.499597023881 323 5 5 1615 8075
123	894873 13188 860 180433 1.269559481717 33.469565014805 323 0.099987080751 0.100000550633 32.300005614528 3.2300011232439
124	908061 13166 1112 180679 1.299591442381 33.499597023881 323 0.099987080523 0.100000554022 32.30000566294 3.2300011329241
