file 867181 1512141600                                          
version 2
run SinusoidalSpeedInjectionAttack-41-20171201-16:19:44-50625
attr CACCSpacing 5
attr attackAcc -30
attr attackPos 7
attr attackSpeed -50
attr attackStart 30
attr attacker 3
attr beaconInterval 0.1
attr configname SinusoidalSpeedInjectionAttack
attr controller 1
attr datetime 20171201-16:19:44
attr experiment SinusoidalSpeedInjectionAttack
attr fakeAcc "(3 == 4)"
attr fakePos "(3 == 2)"
attr fakeSpeed "(3 == 3)"
attr inifile omnetpp_41.ini
attr iterationvars "$attacker=3, $attackSpeed=-50, $attackPos=7, $attackAcc=-30, $leaderSpeed=150, $controller=1, $CACCSpacing=5, $sController=\"CACC\", $attackStart=30, $0=5, $1=0, $nCars=8, $platoonSize=8, $nLanes=1, $beaconInterval=0.1, $priority=2, $packetSize=200, $ploegH=0.5, $leaderHeadway=1.2, $fakeSpeed=(3 == 3), $fakeAcc=(3 == 4), $fakePos=(3 == 2)"
attr iterationvarsf attacker=3,attackSpeed=-50,attackPos=7,attackAcc=-30,leaderSpeed=150,controller=1,CACCSpacing=5,sController=CACC,attackStart=30,5,0,nCars=8,platoonSize=8,nLanes=1,beaconInterval=0.1,priority=2,packetSize=200,ploegH=0.5,leaderHeadway=1.2,fakeSpeed=(3_==_3),fakeAcc=(3_==_4),fakePos=(3_==_2)-
attr leaderHeadway 1.2
attr leaderSpeed 150
attr measurement "$attacker=3, $attackSpeed=-50, $attackPos=7, $attackAcc=-30, $leaderSpeed=150, $controller=1, $CACCSpacing=5, $sController=\"CACC\", $attackStart=30, $0=5, $1=0, $nCars=8, $platoonSize=8, $nLanes=1, $beaconInterval=0.1, $priority=2, $packetSize=200, $ploegH=0.5, $leaderHeadway=1.2, $fakeSpeed=(3 == 3), $fakeAcc=(3 == 4), $fakePos=(3 == 2)"
attr nCars 8
attr nLanes 1
attr network scenario
attr packetSize 200
attr platoonSize 8
attr ploegH 0.5
attr priority 2
attr processid 50625
attr repetition 1
attr replication #1
attr resultdir results
attr runnumber 41
attr sController "\"CACC\""
attr seedset 1
param **.coreDebug false
param **.debug false
param **.headway 0.1s
param **.numberOfCars 8
param **.numberOfCarsPerPlatoon 8
param **.numberOfLanes 1
param **.numericController 1
param **.traffic.nCars 8
param **.traffic.nLanes 1
param **.traffic.platoonInsertDistance 5m
param **.traffic.platoonInsertHeadway 0s
param **.traffic.platoonInsertSpeed 150kmph
param **.traffic.platoonInsertTime "1 s"
param **.traffic.platoonLeaderHeadway 1.2s
param **.traffic.platoonSize 8
param **.traffic.platooningVType "\"vtypeauto\""
param **.traffic_type "\"PlatoonsTrafficManager\""
param *.**.nic.mac1609_4.bitrate 6Mbps
param *.**.nic.mac1609_4.txPower 100mW
param *.**.nic.mac1609_4.useServiceChannel false
param *.**.nic.phy80211p.analogueModels "xmldoc(\"config.xml\")"
param *.**.nic.phy80211p.decider "xmldoc(\"config.xml\")"
param *.**.nic.phy80211p.maxTXPower 100mW
param *.**.nic.phy80211p.sensitivity -94dBm
param *.**.nic.phy80211p.thermalNoise -95dBm
param *.**.nic.phy80211p.usePropagationDelay true
param *.**.nic.phy80211p.useThermalNoise true
param *.annotations.draw false
param *.connectionManager.alpha 2.0
param *.connectionManager.carrierFrequency "5.890e9 Hz"
param *.connectionManager.pMax 100mW
param *.connectionManager.sat -94dBm
param *.connectionManager.sendDirect true
param *.manager.autoShutdown true
param *.manager.commandLine "\"sumo --remote-port $port --seed $seed --configuration-file $configFile\""
param *.manager.configFile "\"./sumocfg/freeway.sumo.cfg\""
param *.manager.host "\"localhost\""
param *.manager.margin 25
param *.manager.moduleDisplayString "\"\""
param *.manager.moduleName "\"node\""
param *.manager.moduleType "\"Car\""
param *.manager.updateInterval 0.01s
param *.node[*].appl.attackStart 30s
param *.node[*].appl.attackerType 3
param *.node[*].appl.simulationDuration "60 s"
param *.node[*].appl_type "\"SimplePlatooningApp\""
param *.node[*].helper.nCars 8
param *.node[*].helper.nLanes 1
param *.node[*].helper.platoonSize 8
param *.node[*].helper_type "\"PositionHelper\""
param *.node[*].mobility.x 0
param *.node[*].mobility.y 0
param *.node[*].mobility.z 1.895
param *.node[*].prot.attackStart 30s
param *.node[*].prot.attackerType 3
param *.node[*].prot.attackingNode 3
param *.node[*].prot.beaconingInterval 0.1s
param *.node[*].prot.fakeAcc "(3 == 4)"
param *.node[*].prot.fakePos "(3 == 2)"
param *.node[*].prot.fakeSpeed "(3 == 3)"
param *.node[*].prot.maliciousAcc "-30 mpss"
param *.node[*].prot.maliciousSpeed -50kmph
param *.node[*].prot.packetSize 200
param *.node[*].prot.priority 2
param *.node[*].prot.shiftX "7 m"
param *.node[*].prot.useControllerAcceleration true
param *.node[*].protocol_type "\"SimplePlatooningBeaconing\""
param *.node[*].scenario.accHeadway 0.1s
param *.node[*].scenario.caccC1 0.5
param *.node[*].scenario.caccOmegaN "0.2 Hz"
param *.node[*].scenario.caccSpacing 5m
param *.node[*].scenario.caccXi 1
param *.node[*].scenario.controller "\"CACC\""
param *.node[*].scenario.engineTau "0.5 s"
param *.node[*].scenario.leaderHeadway 1.2s
param *.node[*].scenario.leaderSpeed 150kmph
param *.node[*].scenario.ploegH 0.5s
param *.node[*].scenario.ploegKd 0.7
param *.node[*].scenario.ploegKp 0.2
param *.node[*].scenario.useRealisticEngine false
param *.node[*].scenario_type "\"SinusoidalScenario\""
param *.node[*].unicast.packetLossRate 0
param *.obstacles.debug false
param *.playgroundSizeX 65000m
param *.playgroundSizeY 25000m
param *.playgroundSizeZ 50m
param *.world.use2D false
param *.world.useTorus false

vector 0  scenario.node[0].appl  distance  ETV
vector 1  scenario.node[0].appl  relativeSpeed  ETV
vector 2  scenario.node[0].appl  nodeId  ETV
vector 6  scenario.node[0].appl  acceleration  ETV
vector 7  scenario.node[0].appl  controllerAcceleration  ETV
vector 3  scenario.node[0].appl  speed  ETV
vector 4  scenario.node[0].appl  posx  ETV
vector 5  scenario.node[0].appl  posy  ETV
vector 22  scenario.node[1].appl  distance  ETV
vector 23  scenario.node[1].appl  relativeSpeed  ETV
vector 24  scenario.node[1].appl  nodeId  ETV
vector 28  scenario.node[1].appl  acceleration  ETV
vector 29  scenario.node[1].appl  controllerAcceleration  ETV
vector 25  scenario.node[1].appl  speed  ETV
vector 26  scenario.node[1].appl  posx  ETV
vector 27  scenario.node[1].appl  posy  ETV
vector 44  scenario.node[2].appl  distance  ETV
vector 45  scenario.node[2].appl  relativeSpeed  ETV
vector 46  scenario.node[2].appl  nodeId  ETV
vector 50  scenario.node[2].appl  acceleration  ETV
vector 51  scenario.node[2].appl  controllerAcceleration  ETV
vector 47  scenario.node[2].appl  speed  ETV
vector 48  scenario.node[2].appl  posx  ETV
vector 49  scenario.node[2].appl  posy  ETV
vector 66  scenario.node[3].appl  distance  ETV
vector 67  scenario.node[3].appl  relativeSpeed  ETV
vector 68  scenario.node[3].appl  nodeId  ETV
vector 72  scenario.node[3].appl  acceleration  ETV
vector 73  scenario.node[3].appl  controllerAcceleration  ETV
vector 69  scenario.node[3].appl  speed  ETV
vector 70  scenario.node[3].appl  posx  ETV
vector 71  scenario.node[3].appl  posy  ETV
vector 88  scenario.node[4].appl  distance  ETV
vector 89  scenario.node[4].appl  relativeSpeed  ETV
vector 90  scenario.node[4].appl  nodeId  ETV
vector 94  scenario.node[4].appl  acceleration  ETV
vector 95  scenario.node[4].appl  controllerAcceleration  ETV
vector 91  scenario.node[4].appl  speed  ETV
vector 92  scenario.node[4].appl  posx  ETV
vector 93  scenario.node[4].appl  posy  ETV
vector 110  scenario.node[5].appl  distance  ETV
vector 111  scenario.node[5].appl  relativeSpeed  ETV
vector 112  scenario.node[5].appl  nodeId  ETV
vector 116  scenario.node[5].appl  acceleration  ETV
vector 117  scenario.node[5].appl  controllerAcceleration  ETV
vector 113  scenario.node[5].appl  speed  ETV
vector 114  scenario.node[5].appl  posx  ETV
vector 115  scenario.node[5].appl  posy  ETV
vector 132  scenario.node[6].appl  distance  ETV
vector 133  scenario.node[6].appl  relativeSpeed  ETV
vector 134  scenario.node[6].appl  nodeId  ETV
vector 138  scenario.node[6].appl  acceleration  ETV
vector 139  scenario.node[6].appl  controllerAcceleration  ETV
vector 135  scenario.node[6].appl  speed  ETV
vector 136  scenario.node[6].appl  posx  ETV
vector 137  scenario.node[6].appl  posy  ETV
vector 154  scenario.node[7].appl  distance  ETV
vector 155  scenario.node[7].appl  relativeSpeed  ETV
vector 156  scenario.node[7].appl  nodeId  ETV
vector 160  scenario.node[7].appl  acceleration  ETV
vector 161  scenario.node[7].appl  controllerAcceleration  ETV
vector 157  scenario.node[7].appl  speed  ETV
vector 158  scenario.node[7].appl  posx  ETV
vector 159  scenario.node[7].appl  posy  ETV
vector 58  scenario.node[2].prot  frontDelay  ETV
vector 56  scenario.node[2].prot  frontDelayId  ETV
vector 102  scenario.node[4].prot  frontDelay  ETV
vector 100  scenario.node[4].prot  frontDelayId  ETV
vector 146  scenario.node[6].prot  frontDelay  ETV
vector 144  scenario.node[6].prot  frontDelayId  ETV
vector 168  scenario.node[7].prot  frontDelay  ETV
vector 166  scenario.node[7].prot  frontDelayId  ETV
vector 124  scenario.node[5].prot  frontDelay  ETV
vector 122  scenario.node[5].prot  frontDelayId  ETV
vector 35  scenario.node[1].prot  leaderDelay  ETV
vector 33  scenario.node[1].prot  leaderDelayId  ETV
vector 36  scenario.node[1].prot  frontDelay  ETV
vector 34  scenario.node[1].prot  frontDelayId  ETV
vector 57  scenario.node[2].prot  leaderDelay  ETV
vector 55  scenario.node[2].prot  leaderDelayId  ETV
vector 79  scenario.node[3].prot  leaderDelay  ETV
vector 77  scenario.node[3].prot  leaderDelayId  ETV
vector 101  scenario.node[4].prot  leaderDelay  ETV
vector 99  scenario.node[4].prot  leaderDelayId  ETV
vector 123  scenario.node[5].prot  leaderDelay  ETV
vector 121  scenario.node[5].prot  leaderDelayId  ETV
vector 145  scenario.node[6].prot  leaderDelay  ETV
vector 143  scenario.node[6].prot  leaderDelayId  ETV
vector 167  scenario.node[7].prot  leaderDelay  ETV
vector 165  scenario.node[7].prot  leaderDelayId  ETV
vector 80  scenario.node[3].prot  frontDelay  ETV
vector 78  scenario.node[3].prot  frontDelayId  ETV
vector 8  scenario.node[0].prot  nodeId  ETV
vector 9  scenario.node[0].prot  busyTime  ETV
vector 10  scenario.node[0].prot  collisions  ETV
vector 30  scenario.node[1].prot  nodeId  ETV
vector 31  scenario.node[1].prot  busyTime  ETV
vector 32  scenario.node[1].prot  collisions  ETV
vector 52  scenario.node[2].prot  nodeId  ETV
vector 53  scenario.node[2].prot  busyTime  ETV
vector 54  scenario.node[2].prot  collisions  ETV
vector 74  scenario.node[3].prot  nodeId  ETV
vector 75  scenario.node[3].prot  busyTime  ETV
vector 76  scenario.node[3].prot  collisions  ETV
vector 96  scenario.node[4].prot  nodeId  ETV
vector 97  scenario.node[4].prot  busyTime  ETV
vector 98  scenario.node[4].prot  collisions  ETV
vector 118  scenario.node[5].prot  nodeId  ETV
vector 119  scenario.node[5].prot  busyTime  ETV
vector 120  scenario.node[5].prot  collisions  ETV
vector 140  scenario.node[6].prot  nodeId  ETV
vector 141  scenario.node[6].prot  busyTime  ETV
vector 142  scenario.node[6].prot  collisions  ETV
vector 162  scenario.node[7].prot  nodeId  ETV
vector 163  scenario.node[7].prot  busyTime  ETV
vector 164  scenario.node[7].prot  collisions  ETV
7	11085 7277 232 170319 1.11 31.61 306 -1.5 1.5 10.822356189537 484.26089747463
6	18362 9592 232 170319 1.11 31.61 306 -1.4722746794739 1.4513241957715 2.8651811245467 323.16681728533
5	27954 6138 232 170319 1.11 31.61 306 36.55 36.55 11184.3 408786.165
4	34092 9170 232 170319 1.11 31.61 306 99.772059249478 1373.6501617882 225917.33764005 208504601.68736
3	43262 9151 232 170319 1.11 31.61 306 40.376926150007 43.631381416411 12780.537456124 534023.16598716
1	52413 4914 232 170319 1.11 31.61 306 0 0 0 0
0	57327 5220 232 170319 1.11 31.61 306 -1 -1 -306 306
2	62547 4914 232 170319 1.11 31.61 306 0 0 0 0
10	67461 423 5168 166900 2 31 30 0 0 0 0
9	67884 574 5168 166900 2 31 30 0.023297 0.02625 0.784547 0.020525562709
8	68458 393 5168 166900 2 31 30 0 0 0 0
29	68851 9830 233 170320 1.11 31.61 306 -1.5555551920973 1.5570065806119 9.4424759759341 503.89922880173
28	78681 9895 233 170320 1.11 31.61 306 -1.4954736412641 1.4760592287701 1.5250414203727 329.81907767499
27	88576 6444 233 170320 1.11 31.61 306 36.55 36.55 11184.3 408786.165
26	95020 9462 233 170320 1.11 31.61 306 90.772059249878 1364.6148407344 223157.46299119 204457493.08261
25	104482 9464 233 170320 1.11 31.61 306 40.360517330394 43.640189945694 12780.137233293 533995.3384958
23	113946 10198 233 170320 1.11 31.61 306 -0.12424054129113 0.12345093525423 0.37157101946046 2.4556936867373
22	124144 9472 233 170320 1.11 31.61 306 4.8776196999893 5.1830413249279 1535.8666444028 7710.8463631845
24	133616 5220 233 170320 1.11 31.61 306 1 1 306 306
36	138836 12118 1238 170212 1.297801900626 31.597809638471 304 0.099998479442 0.100011486312 30.400006218179 3.0400012489995
35	150954 12118 1238 170212 1.297801900626 31.597809638471 304 0.099998479442 0.100011486312 30.400006218179 3.0400012489995
34	163072 8193 1238 170212 1.297801900626 31.597809638471 304 1 1 304 304
33	171265 8193 1238 170212 1.297801900626 31.597809638471 304 1 1 304 304
32	179458 423 5169 166901 2 31 30 0 0 0 0
31	179881 604 5169 166901 2 31 30 0.023297 0.02625 0.784547 0.020525562709
30	180485 423 5169 166901 2 31 30 1 1 30 30
51	180908 9826 234 170321 1.11 31.61 306 -1.509213596604 1.5122039307383 8.6020384070978 477.28560856374
50	190734 9893 234 170321 1.11 31.61 306 -1.4841297360832 1.4672918325289 1.399009645332 324.86578671268
49	200627 6444 234 170321 1.11 31.61 306 36.55 36.55 11184.3 408786.165
48	207071 9458 234 170321 1.11 31.61 306 81.772059249878 1355.6173704688 220400.37047413 200461245.47734
47	216529 9473 234 170321 1.11 31.61 306 40.37087298373 43.628786597664 12780.158423598 533993.75169786
45	226002 10580 234 170321 1.11 31.61 306 -0.010773792808216 0.012241032060388 -0.036440719164091 0.013304814555054
44	236582 9459 234 170321 1.11 31.61 306 4.9921308100888 5.0331336584793 1533.0929408649 7680.9963058326
46	246041 5220 234 170321 1.11 31.61 306 2 2 612 1224
58	251261 12154 832 170357 1.212435510355 31.612441728506 305 0.099998479432 0.100011487704 30.500004698485 3.0500009450631
57	263415 12122 1244 170218 1.297801930647 31.597809668482 304 0.099998479438 0.100011486314 30.400006218169 3.0400012489975
56	275537 8227 832 170357 1.212435510355 31.612441728506 305 2 2 610 1220
55	283764 8196 1244 170218 1.297801930647 31.597809668482 304 2 2 608 1216
54	291960 423 5170 166902 2 31 30 0 0 0 0
53	292383 604 5170 166902 2 31 30 0.023296 0.02625 0.784546 0.020525516116
52	292987 423 5170 166902 2 31 30 2 2 60 120
73	293410 9812 235 170322 1.11 31.61 306 -1.4954488807892 1.4986508406297 8.1954906203285 463.03415269409
72	303222 9863 235 170322 1.11 31.61 306 -1.4697266324674 1.4522492513507 1.1355637343478 318.2703368934
71	313085 6444 235 170322 1.11 31.61 306 36.55 36.55 11184.3 408786.165
70	319529 9470 235 170322 1.11 31.61 306 72.772059249878 1346.6207670502 217643.47499564 196515415.99575
69	328999 9472 235 170322 1.11 31.61 306 40.385663984105 43.613786586721 12780.183390538 533991.64273972
67	338471 10436 235 170322 1.11 31.61 306 -0.021936206482252 0.021653869345336 -0.0389570357342 0.040307625847113
66	348907 9430 235 170322 1.11 31.61 306 4.9809316148167 5.0520778488931 1532.8959778303 7679.0880161796
68	358337 5220 235 170322 1.11 31.61 306 3 3 918 2754
80	363557 12114 1312 170281 1.307223960668 31.607218698491 304 0.099998479434 0.10001148239 30.399993218157 3.0399986488655
79	375671 12134 1250 170224 1.297801960667 31.59780969849 304 0.099998479435 0.100011486322 30.400006218157 3.0400012489951
78	387805 8185 1312 170281 1.307223960668 31.607218698491 304 3 3 912 2736
77	395990 8201 1250 170224 1.297801960667 31.59780969849 304 3 3 912 2736
76	404191 423 5171 166903 2 31 30 0 0 0 0
75	404614 604 5171 166903 2 31 30 0.023297 0.02625 0.784547 0.020525562709
74	405218 423 5171 166903 2 31 30 3 3 90 270
95	405641 9835 236 170323 1.11 31.61 306 -15.222189578702 1.506086239001 -212.15643435036 2919.0608148718
94	415476 9826 236 170323 1.11 31.61 306 -9.0000000000003 1.4503898350611 -142.00211981645 1407.4721266258
93	425302 6444 236 170323 1.11 31.61 306 36.55 36.55 11184.3 408786.165
92	431746 9472 236 170323 1.11 31.61 306 63.772059249878 1327.9389196123 214836.34507426 192485334.28879
91	441218 9474 236 170323 1.11 31.61 306 27.885744198644 43.609774304364 12678.43471407 526569.76285529
89	450692 10397 236 170323 1.11 31.61 306 -0.013223225592235 13.819190473553 101.7373208303 955.79817083883
88	461089 9443 236 170323 1.11 31.61 306 4.9999999859501 14.405184000305 1581.0949478548 8450.7259361395
90	470532 5220 236 170323 1.11 31.61 306 4 4 1224 4896
102	475752 12459 902 170439 1.235039570397 31.635045821776 305 0.09999847948 0.100011492276 30.500004731713 3.0500009517087
101	488211 12426 1256 170230 1.297801990688 31.597809759883 304 0.099998479471 0.1000114904 30.400006249529 3.0400012552696
100	500637 8536 902 170439 1.235039570397 31.635045821776 305 4 4 1220 4880
99	509173 8201 1256 170230 1.297801990688 31.597809759883 304 4 4 1216 4864
98	517374 423 5172 166904 2 31 30 0 0 0 0
97	517797 604 5172 166904 2 31 30 0.023297 0.02625 0.784547 0.020525562709
96	518401 423 5172 166904 2 31 30 4 4 120 480
139	518824 10139 238 170325 1.11 31.61 306 -2.7905747630656 1.5046152313456 -53.264442215052 535.86082580151
138	528963 10220 238 170325 1.11 31.61 306 -2.4848260891844 1.4432664555088 -41.440399423762 358.68706736861
137	539183 6750 238 170325 1.11 31.61 306 36.55 36.55 11184.3 408786.165
136	545933 9782 238 170325 1.11 31.61 306 45.772061157227 1317.1879933208 209362.47732895 184944911.05275
135	555715 9768 238 170325 1.11 31.61 306 37.638643470939 43.599166746536 12754.394972503 531931.95941559
133	565483 10649 238 170325 1.11 31.61 306 -3.8685627999326 0.023301929706179 -26.888246812378 71.781643780712
132	576132 9746 238 170325 1.11 31.61 306 2.4472120375119 5.0188540117688 1519.8427958995 7568.9445369652
134	585878 5526 238 170325 1.11 31.61 306 6 6 1836 11016
146	591404 12460 970 170501 1.248712630439 31.648705856839 305 0.099998479425 0.100011482458 30.499991706734 3.0499983465832
145	603864 12411 1268 170242 1.29780205073 31.597809796395 304 0.099998479432 0.100011487484 30.400006225999 3.0400012505635
144	616275 8526 970 170501 1.248712630439 31.648705856839 305 6 6 1830 10980
143	624801 8499 1268 170242 1.29780205073 31.597809796395 304 6 6 1824 10944
142	633300 453 5174 166906 2 31 30 0 0 0 0
141	633753 634 5174 166906 2 31 30 0.023297 0.02625 0.784547 0.020525562709
140	634387 453 5174 166906 2 31 30 6 6 180 1080
161	634840 10166 239 170326 1.11 31.61 306 -1.5093935053088 1.5126458994111 -24.983887286532 448.7137399334
160	645006 10219 239 170326 1.11 31.61 306 -1.4619692904546 1.4451435688265 -21.025517913247 304.70245103473
159	655225 6750 239 170326 1.11 31.61 306 36.55 36.55 11184.3 408786.165
158	661975 9769 239 170326 1.11 31.61 306 36.772060680389 1309.3875190344 206611.95301924 181211950.39142
157	671744 9779 239 170326 1.11 31.61 306 39.601811021067 43.600869559239 12767.092092062 532927.44628359
155	681523 10663 239 170326 1.11 31.61 306 -1.9383192892359 0.024254029064608 -12.282715564923 16.47078994028
154	692186 9778 239 170326 1.11 31.61 306 3.8397376373623 5.0179693968698 1526.7782521092 7621.7581181978
156	701964 5526 239 170326 1.11 31.61 306 7 7 2142 14994
168	707490 12463 1040 170571 1.26389366046 31.663886882519 305 0.09999847942 0.100011482459 30.499991702393 3.049998345715
167	719953 12419 1274 170248 1.29780208075 31.597809822545 304 0.099998479432 0.100011486918 30.400006222129 3.0400012497895
166	732372 8526 1040 170571 1.26389366046 31.663886882519 305 7 7 2135 14945
165	740898 8501 1274 170248 1.29780208075 31.597809822545 304 7 7 2128 14896
164	749399 453 5175 166907 2 31 30 0 0 0 0
163	749852 634 5175 166907 2 31 30 0.023297 0.02625 0.784547 0.020525562709
162	750486 453 5175 166907 2 31 30 7 7 210 1470
110	750939 9784 237 170605 1.11 31.68 307 0 5.0458383262255 1507.5441545725 7498.0810547436
111	760723 10673 237 170605 1.11 31.68 307 -6.0349167762289 0.020930926089335 -52.868419502281 224.99316246286
112	771396 5545 237 170605 1.11 31.68 307 5 5 1535 7675
113	776941 9812 237 170605 1.11 31.68 307 33.343616182713 43.606818977637 12760.031854177 530981.81523815
114	786753 9807 237 170605 1.11 31.68 307 54.772061157227 1325.8982526935 213431.66424286 190465649.17575
115	796560 6773 237 170605 1.11 31.68 307 36.55 36.55 11220.85 410122.0675
116	803333 10237 237 170605 1.11 31.68 307 -5.4793435888264 1.4484846967797 -87.144161265599 666.26141362647
117	813570 10187 237 170605 1.11 31.68 307 -7.0930695530621 1.5300606396935 -117.00978448992 1065.4947758432
118	823757 453 5173 166905 2 31 30 5 5 150 750
119	824210 634 5173 166905 2 31 30 0.023297 0.02625 0.784547 0.020525562709
120	824844 453 5173 166905 2 31 30 0 0 0 0
121	825297 8515 1262 170236 1.297802020709 31.597809774889 304 5 5 1520 7600
122	833812 8505 1178 170146 1.297388780543 31.597383471805 304 5 5 1520 7600
123	842317 12435 1262 170236 1.297802020709 31.597809774889 304 0.099998479444 0.10001148864 30.400006234514 3.0400012522665
124	854752 12429 1178 170146 1.297388780543 31.597383471805 304 0.099998477727 0.100011482451 30.399993171596 3.0399986395533
