file 1677574 1512142089                                         
version 2
run SinusoidalSpeedInjectionAttack-146-20171201-16:27:39-61583
attr CACCSpacing 20
attr attackAcc -30
attr attackPos 7
attr attackSpeed 50
attr attackStart 30
attr attacker 3
attr beaconInterval 0.1
attr configname SinusoidalSpeedInjectionAttack
attr controller 1
attr datetime 20171201-16:27:39
attr experiment SinusoidalSpeedInjectionAttack
attr fakeAcc "(3 == 4)"
attr fakePos "(3 == 2)"
attr fakeSpeed "(3 == 3)"
attr inifile omnetpp_146.ini
attr iterationvars "$attacker=3, $attackSpeed=50, $attackPos=7, $attackAcc=-30, $leaderSpeed=100, $controller=1, $CACCSpacing=20, $sController=\"CACC\", $attackStart=30, $0=20, $1=0, $nCars=8, $platoonSize=8, $nLanes=1, $beaconInterval=0.1, $priority=2, $packetSize=200, $ploegH=0.5, $leaderHeadway=1.2, $fakeSpeed=(3 == 3), $fakeAcc=(3 == 4), $fakePos=(3 == 2)"
attr iterationvarsf attacker=3,attackSpeed=50,attackPos=7,attackAcc=-30,leaderSpeed=100,controller=1,CACCSpacing=20,sController=CACC,attackStart=30,20,0,nCars=8,platoonSize=8,nLanes=1,beaconInterval=0.1,priority=2,packetSize=200,ploegH=0.5,leaderHeadway=1.2,fakeSpeed=(3_==_3),fakeAcc=(3_==_4),fakePos=(3_==_2)-
attr leaderHeadway 1.2
attr leaderSpeed 100
attr measurement "$attacker=3, $attackSpeed=50, $attackPos=7, $attackAcc=-30, $leaderSpeed=100, $controller=1, $CACCSpacing=20, $sController=\"CACC\", $attackStart=30, $0=20, $1=0, $nCars=8, $platoonSize=8, $nLanes=1, $beaconInterval=0.1, $priority=2, $packetSize=200, $ploegH=0.5, $leaderHeadway=1.2, $fakeSpeed=(3 == 3), $fakeAcc=(3 == 4), $fakePos=(3 == 2)"
attr nCars 8
attr nLanes 1
attr network scenario
attr packetSize 200
attr platoonSize 8
attr ploegH 0.5
attr priority 2
attr processid 61583
attr repetition 1
attr replication #1
attr resultdir results
attr runnumber 146
attr sController "\"CACC\""
attr seedset 1
param **.coreDebug false
param **.debug false
param **.headway 0.1s
param **.numberOfCars 8
param **.numberOfCarsPerPlatoon 8
param **.numberOfLanes 1
param **.numericController 1
param **.traffic.nCars 8
param **.traffic.nLanes 1
param **.traffic.platoonInsertDistance 20m
param **.traffic.platoonInsertHeadway 0s
param **.traffic.platoonInsertSpeed 100kmph
param **.traffic.platoonInsertTime "1 s"
param **.traffic.platoonLeaderHeadway 1.2s
param **.traffic.platoonSize 8
param **.traffic.platooningVType "\"vtypeauto\""
param **.traffic_type "\"PlatoonsTrafficManager\""
param *.**.nic.mac1609_4.bitrate 6Mbps
param *.**.nic.mac1609_4.txPower 100mW
param *.**.nic.mac1609_4.useServiceChannel false
param *.**.nic.phy80211p.analogueModels "xmldoc(\"config.xml\")"
param *.**.nic.phy80211p.decider "xmldoc(\"config.xml\")"
param *.**.nic.phy80211p.maxTXPower 100mW
param *.**.nic.phy80211p.sensitivity -94dBm
param *.**.nic.phy80211p.thermalNoise -95dBm
param *.**.nic.phy80211p.usePropagationDelay true
param *.**.nic.phy80211p.useThermalNoise true
param *.annotations.draw false
param *.connectionManager.alpha 2.0
param *.connectionManager.carrierFrequency "5.890e9 Hz"
param *.connectionManager.pMax 100mW
param *.connectionManager.sat -94dBm
param *.connectionManager.sendDirect true
param *.manager.autoShutdown true
param *.manager.commandLine "\"sumo --remote-port $port --seed $seed --configuration-file $configFile\""
param *.manager.configFile "\"./sumocfg/freeway.sumo.cfg\""
param *.manager.host "\"localhost\""
param *.manager.margin 25
param *.manager.moduleDisplayString "\"\""
param *.manager.moduleName "\"node\""
param *.manager.moduleType "\"Car\""
param *.manager.updateInterval 0.01s
param *.node[*].appl.attackStart 30s
param *.node[*].appl.attackerType 3
param *.node[*].appl.simulationDuration "60 s"
param *.node[*].appl_type "\"SimplePlatooningApp\""
param *.node[*].helper.nCars 8
param *.node[*].helper.nLanes 1
param *.node[*].helper.platoonSize 8
param *.node[*].helper_type "\"PositionHelper\""
param *.node[*].mobility.x 0
param *.node[*].mobility.y 0
param *.node[*].mobility.z 1.895
param *.node[*].prot.attackStart 30s
param *.node[*].prot.attackerType 3
param *.node[*].prot.attackingNode 3
param *.node[*].prot.beaconingInterval 0.1s
param *.node[*].prot.fakeAcc "(3 == 4)"
param *.node[*].prot.fakePos "(3 == 2)"
param *.node[*].prot.fakeSpeed "(3 == 3)"
param *.node[*].prot.maliciousAcc "-30 mpss"
param *.node[*].prot.maliciousSpeed 50kmph
param *.node[*].prot.packetSize 200
param *.node[*].prot.priority 2
param *.node[*].prot.shiftX "7 m"
param *.node[*].prot.useControllerAcceleration true
param *.node[*].protocol_type "\"SimplePlatooningBeaconing\""
param *.node[*].scenario.accHeadway 0.1s
param *.node[*].scenario.caccC1 0.5
param *.node[*].scenario.caccOmegaN "0.2 Hz"
param *.node[*].scenario.caccSpacing 20m
param *.node[*].scenario.caccXi 1
param *.node[*].scenario.controller "\"CACC\""
param *.node[*].scenario.engineTau "0.5 s"
param *.node[*].scenario.leaderHeadway 1.2s
param *.node[*].scenario.leaderSpeed 100kmph
param *.node[*].scenario.ploegH 0.5s
param *.node[*].scenario.ploegKd 0.7
param *.node[*].scenario.ploegKp 0.2
param *.node[*].scenario.useRealisticEngine false
param *.node[*].scenario_type "\"SinusoidalScenario\""
param *.node[*].unicast.packetLossRate 0
param *.obstacles.debug false
param *.playgroundSizeX 65000m
param *.playgroundSizeY 25000m
param *.playgroundSizeZ 50m
param *.world.use2D false
param *.world.useTorus false

vector 0  scenario.node[0].appl  distance  ETV
vector 1  scenario.node[0].appl  relativeSpeed  ETV
vector 2  scenario.node[0].appl  nodeId  ETV
vector 6  scenario.node[0].appl  acceleration  ETV
vector 7  scenario.node[0].appl  controllerAcceleration  ETV
vector 3  scenario.node[0].appl  speed  ETV
vector 4  scenario.node[0].appl  posx  ETV
vector 5  scenario.node[0].appl  posy  ETV
vector 22  scenario.node[1].appl  distance  ETV
vector 23  scenario.node[1].appl  relativeSpeed  ETV
vector 24  scenario.node[1].appl  nodeId  ETV
vector 28  scenario.node[1].appl  acceleration  ETV
vector 29  scenario.node[1].appl  controllerAcceleration  ETV
vector 25  scenario.node[1].appl  speed  ETV
vector 26  scenario.node[1].appl  posx  ETV
vector 27  scenario.node[1].appl  posy  ETV
vector 44  scenario.node[2].appl  distance  ETV
vector 45  scenario.node[2].appl  relativeSpeed  ETV
vector 46  scenario.node[2].appl  nodeId  ETV
vector 50  scenario.node[2].appl  acceleration  ETV
vector 51  scenario.node[2].appl  controllerAcceleration  ETV
vector 47  scenario.node[2].appl  speed  ETV
vector 48  scenario.node[2].appl  posx  ETV
vector 49  scenario.node[2].appl  posy  ETV
vector 66  scenario.node[3].appl  distance  ETV
vector 67  scenario.node[3].appl  relativeSpeed  ETV
vector 68  scenario.node[3].appl  nodeId  ETV
vector 72  scenario.node[3].appl  acceleration  ETV
vector 73  scenario.node[3].appl  controllerAcceleration  ETV
vector 69  scenario.node[3].appl  speed  ETV
vector 70  scenario.node[3].appl  posx  ETV
vector 71  scenario.node[3].appl  posy  ETV
vector 88  scenario.node[4].appl  distance  ETV
vector 89  scenario.node[4].appl  relativeSpeed  ETV
vector 90  scenario.node[4].appl  nodeId  ETV
vector 94  scenario.node[4].appl  acceleration  ETV
vector 95  scenario.node[4].appl  controllerAcceleration  ETV
vector 91  scenario.node[4].appl  speed  ETV
vector 92  scenario.node[4].appl  posx  ETV
vector 93  scenario.node[4].appl  posy  ETV
vector 110  scenario.node[5].appl  distance  ETV
vector 111  scenario.node[5].appl  relativeSpeed  ETV
vector 112  scenario.node[5].appl  nodeId  ETV
vector 116  scenario.node[5].appl  acceleration  ETV
vector 117  scenario.node[5].appl  controllerAcceleration  ETV
vector 113  scenario.node[5].appl  speed  ETV
vector 114  scenario.node[5].appl  posx  ETV
vector 115  scenario.node[5].appl  posy  ETV
vector 132  scenario.node[6].appl  distance  ETV
vector 133  scenario.node[6].appl  relativeSpeed  ETV
vector 134  scenario.node[6].appl  nodeId  ETV
vector 138  scenario.node[6].appl  acceleration  ETV
vector 139  scenario.node[6].appl  controllerAcceleration  ETV
vector 135  scenario.node[6].appl  speed  ETV
vector 136  scenario.node[6].appl  posx  ETV
vector 137  scenario.node[6].appl  posy  ETV
vector 154  scenario.node[7].appl  distance  ETV
vector 155  scenario.node[7].appl  relativeSpeed  ETV
vector 156  scenario.node[7].appl  nodeId  ETV
vector 160  scenario.node[7].appl  acceleration  ETV
vector 161  scenario.node[7].appl  controllerAcceleration  ETV
vector 157  scenario.node[7].appl  speed  ETV
vector 158  scenario.node[7].appl  posx  ETV
vector 159  scenario.node[7].appl  posy  ETV
vector 58  scenario.node[2].prot  frontDelay  ETV
vector 56  scenario.node[2].prot  frontDelayId  ETV
vector 102  scenario.node[4].prot  frontDelay  ETV
vector 100  scenario.node[4].prot  frontDelayId  ETV
vector 146  scenario.node[6].prot  frontDelay  ETV
vector 144  scenario.node[6].prot  frontDelayId  ETV
vector 168  scenario.node[7].prot  frontDelay  ETV
vector 166  scenario.node[7].prot  frontDelayId  ETV
vector 124  scenario.node[5].prot  frontDelay  ETV
vector 122  scenario.node[5].prot  frontDelayId  ETV
vector 35  scenario.node[1].prot  leaderDelay  ETV
vector 33  scenario.node[1].prot  leaderDelayId  ETV
vector 36  scenario.node[1].prot  frontDelay  ETV
vector 34  scenario.node[1].prot  frontDelayId  ETV
vector 57  scenario.node[2].prot  leaderDelay  ETV
vector 55  scenario.node[2].prot  leaderDelayId  ETV
vector 79  scenario.node[3].prot  leaderDelay  ETV
vector 77  scenario.node[3].prot  leaderDelayId  ETV
vector 101  scenario.node[4].prot  leaderDelay  ETV
vector 99  scenario.node[4].prot  leaderDelayId  ETV
vector 123  scenario.node[5].prot  leaderDelay  ETV
vector 121  scenario.node[5].prot  leaderDelayId  ETV
vector 145  scenario.node[6].prot  leaderDelay  ETV
vector 143  scenario.node[6].prot  leaderDelayId  ETV
vector 167  scenario.node[7].prot  leaderDelay  ETV
vector 165  scenario.node[7].prot  leaderDelayId  ETV
vector 80  scenario.node[3].prot  frontDelay  ETV
vector 78  scenario.node[3].prot  frontDelayId  ETV
vector 8  scenario.node[0].prot  nodeId  ETV
vector 9  scenario.node[0].prot  busyTime  ETV
vector 10  scenario.node[0].prot  collisions  ETV
vector 30  scenario.node[1].prot  nodeId  ETV
vector 31  scenario.node[1].prot  busyTime  ETV
vector 32  scenario.node[1].prot  collisions  ETV
vector 52  scenario.node[2].prot  nodeId  ETV
vector 53  scenario.node[2].prot  busyTime  ETV
vector 54  scenario.node[2].prot  collisions  ETV
vector 74  scenario.node[3].prot  nodeId  ETV
vector 75  scenario.node[3].prot  busyTime  ETV
vector 76  scenario.node[3].prot  collisions  ETV
vector 96  scenario.node[4].prot  nodeId  ETV
vector 97  scenario.node[4].prot  busyTime  ETV
vector 98  scenario.node[4].prot  collisions  ETV
vector 118  scenario.node[5].prot  nodeId  ETV
vector 119  scenario.node[5].prot  busyTime  ETV
vector 120  scenario.node[5].prot  collisions  ETV
vector 140  scenario.node[6].prot  nodeId  ETV
vector 141  scenario.node[6].prot  busyTime  ETV
vector 142  scenario.node[6].prot  collisions  ETV
vector 162  scenario.node[7].prot  nodeId  ETV
vector 163  scenario.node[7].prot  busyTime  ETV
vector 164  scenario.node[7].prot  collisions  ETV
7	11092 13860 232 328174 1.11 59.91 589 -1.5 1.5 -14.445974034379 993.24092368185
6	24952 18594 232 328174 1.11 59.91 589 -1.4722746794938 1.4513434175793 -12.50726914995 675.29835222675
5	43546 12081 232 328174 1.11 59.91 589 36.55 36.55 21527.95 786846.5725
4	55627 17895 232 328174 1.11 59.91 589 203.38317031834 1841.0326358608 602900.22400923 748918474.19071
3	73522 17905 232 328174 1.11 59.91 589 26.487965859734 29.742492528104 16403.83880962 457295.15275867
1	91427 9725 232 328174 1.11 59.91 589 0 0 0 0
0	101152 10314 232 328174 1.11 59.91 589 -1 -1 -589 589
2	111466 9725 232 328174 1.11 59.91 589 0 0 0 0
10	121191 858 5168 328662 2 60 59 0 0 0 0
9	122049 1154 5168 328662 2 60 59 0.023297 0.02625 1.545797 0.040508375209
8	123203 799 5168 328662 2 60 59 0 0 0 0
29	124002 16903 233 328175 1.11 59.91 589 -1.5466261422272 1.5427619280957 -19.18579679984 1005.145026017
28	140905 19174 233 328175 1.11 59.91 589 -1.4899163920546 1.4506836311249 -11.883580556606 678.00873708988
27	160079 12670 233 328175 1.11 59.91 589 36.55 36.55 21527.95 786846.5725
26	172749 18494 233 328175 1.11 59.91 589 179.3831703186 1816.8537506102 588631.4164509 720005520.13139
25	191243 18497 233 328175 1.11 59.91 589 26.476974864243 29.732323955484 16402.072773909 457196.97423278
23	209740 19810 233 328175 1.11 59.91 589 -0.12340964987202 0.14226264349096 1.8911084019753 5.1118242798058
22	229550 18497 233 328175 1.11 59.91 589 19.955408041301 20.423435535905 11912.772237614 240950.31441141
24	248047 10314 233 328175 1.11 59.91 589 1 1 589 589
36	258361 23707 1238 328624 1.297803401661 59.997806617858 588 0.099999280546 0.100012872259 58.800002497083 5.8800005034308
35	282068 23707 1238 328624 1.297803401661 59.997806617858 588 0.099999280546 0.100012872259 58.800002497083 5.8800005034308
34	305775 16116 1238 328624 1.297803401661 59.997806617858 588 1 1 588 588
33	321891 16116 1238 328624 1.297803401661 59.997806617858 588 1 1 588 588
32	338007 858 5169 328663 2 60 59 0 0 0 0
31	338865 1213 5169 328663 2 60 59 0.023297 0.02625 1.545797 0.040508375209
30	340078 858 5169 328663 2 60 59 1 1 59 59
51	340936 18893 234 328176 1.11 59.91 589 -1.5013789189422 1.5 -15.002631443257 969.47363157387
50	359829 19180 234 328176 1.11 59.91 589 -1.4795465362251 1.4451253722875 -11.791000026071 670.96704640291
49	379009 12670 234 328176 1.11 59.91 589 36.55 36.55 21527.95 786846.5725
48	391679 18502 234 328176 1.11 59.91 589 155.3831703186 1792.7659319573 574457.16948814 691999114.56912
47	410181 18493 234 328176 1.11 59.91 589 26.480520720116 29.721741405991 16401.197755674 457143.53966641
45	428674 20569 234 328176 1.11 59.91 589 -0.0071974947634033 0.01362616114978 0.99385404034657 0.019393726994809
44	449243 18473 234 328176 1.11 59.91 589 19.99999995392 20.104225149556 11818.2294624 237132.28633617
46	467716 10314 234 328176 1.11 59.91 589 2 2 1178 2356
58	478030 23706 832 328212 1.212436360941 59.912438918481 588 0.099999280539 0.100012890613 58.800001838426 5.880000371702
57	501736 23699 1244 328630 1.297803481717 59.997806698203 588 0.099999280543 0.100012872254 58.800002497372 5.8800005034886
56	525435 16118 832 328212 1.212436360941 59.912438918481 588 2 2 1176 2352
55	541553 16121 1244 328630 1.297803481717 59.997806698203 588 2 2 1176 2352
54	557674 858 5170 328664 2 60 59 0 0 0 0
53	558532 1213 5170 328664 2 60 59 0.023296 0.02625 1.545796 0.040508328616
52	559745 858 5170 328664 2 60 59 2 2 118 236
73	560603 19026 235 328177 1.11 59.91 589 -1.4910652804569 1.4960972914815 -15.492910982244 949.5999510646
72	579629 19160 235 328177 1.11 59.91 589 -1.4676550573046 1.443132550893 -11.617155983451 665.11707684071
71	598789 12670 235 328177 1.11 59.91 589 36.55 36.55 21527.95 786846.5725
70	611459 18490 235 328177 1.11 59.91 589 131.3831703186 1768.7973824186 560332.47873994 664787547.98534
69	629949 18501 235 328177 1.11 59.91 589 26.488696441652 29.713305205038 16401.519468577 457157.73467446
67	648450 20386 235 328177 1.11 59.91 589 -0.021861808505278 0.014939181441232 -0.20380290185847 0.046718604405855
66	668836 18478 235 328177 1.11 59.91 589 19.935010645319 20.042503288962 11768.697182456 235148.39630621
68	687314 10314 235 328177 1.11 59.91 589 3 3 1767 5301
80	697628 23698 1312 328701 1.307225561772 60.007215778148 588 0.099999280538 0.100012786564 58.799989497262 5.8799979033076
79	721326 23716 1250 328636 1.297803561772 59.997806778148 588 0.099999280538 0.100012872245 58.800002497262 5.8800005034666
78	745042 16113 1312 328701 1.307225561772 60.007215778148 588 3 3 1764 5292
77	761155 16123 1250 328636 1.297803561772 59.997806778148 588 3 3 1764 5292
76	777278 858 5171 328665 2 60 59 0 0 0 0
75	778136 1213 5171 328665 2 60 59 0.023297 0.02625 1.545797 0.040508375209
74	779349 858 5171 328665 2 60 59 3 3 177 531
95	780207 17834 236 328178 1.11 59.91 589 -3.0272015691188 1.5003026741069 -14.049677753875 983.2304226906
94	798041 19195 236 328178 1.11 59.91 589 -2.5031731609367 1.4864997563869 -12.054709568964 716.96850368177
93	817236 12670 236 328178 1.11 59.91 589 36.55 36.55 21527.95 786846.5725
92	829906 18491 236 328178 1.11 59.91 589 107.3831703186 1636.995012743 523959.38479425 576256647.84389
91	848397 18496 236 328178 1.11 59.91 589 18.038747154882 29.711948419741 15323.477844808 403713.45801514
89	866893 19553 236 328178 1.11 59.91 589 -0.016890544151607 8.5558896918398 1078.1577953285 6566.5825784221
88	886446 18477 236 328178 1.11 59.91 589 19.975623730705 127.80123765649 33995.533113213 3168284.5566971
90	904923 10314 236 328178 1.11 59.91 589 4 4 2356 9424
102	915237 24279 902 328300 1.235040521052 59.93504343808 588 0.099999280533 0.100012890663 58.800002197914 5.8800004435995
101	939516 24297 1256 328642 1.297803641828 59.997807217804 588 0.099999280537 0.100012872455 58.800002856862 5.8800005753866
100	963813 16694 902 328300 1.235040521052 59.93504343808 588 4 4 2352 9408
99	980507 16116 1256 328642 1.297803641828 59.997807217804 588 4 4 2352 9408
98	996623 858 5172 328666 2 60 59 0 0 0 0
97	997481 1213 5172 328666 2 60 59 0.023297 0.02625 1.545797 0.040508375209
96	998694 858 5172 328666 2 60 59 4 4 236 944
117	999552 19586 237 328179 1.11 59.91 589 -2.8908430513596 1.779302188716 -18.457762076274 999.0068739881
116	1019138 19814 237 328179 1.11 59.91 589 -2.4360216577048 1.6878035462913 -15.028716913939 694.64549214747
115	1038952 13259 237 328179 1.11 59.91 589 36.55 36.55 21527.95 786846.5725
114	1052211 19086 237 328179 1.11 59.91 589 83.383170318604 1614.8488709656 512429.83597066 557659811.83909
113	1071297 19063 237 328179 1.11 59.91 589 20.160804975075 29.710213042635 15341.913961098 403581.95022558
111	1090360 20252 237 328179 1.11 59.91 589 -2.9677603417879 1.1822396079822 -18.315569194974 452.71104832632
110	1110612 19044 237 328179 1.11 59.91 589 4.1022491585502 20.044767086285 9173.9175459122 161587.93107196
112	1129656 10903 237 328179 1.11 59.91 589 5 5 2945 14725
124	1140559 24300 1178 328558 1.297390081439 59.997379930588 588 0.099999280531 0.100012781522 58.799989130035 5.8799978298618
123	1164859 24298 1262 328648 1.297803721883 59.997807291756 588 0.099999280536 0.100012872646 58.800002850759 5.880000574166
122	1189157 16711 1178 328558 1.297390081439 59.997379930588 588 5 5 2940 14700
121	1205868 16723 1262 328648 1.297803721883 59.997807291756 588 5 5 2940 14700
120	1222591 917 5173 328667 2 60 59 0 0 0 0
119	1223508 1272 5173 328667 2 60 59 0.023297 0.02625 1.545797 0.040508375209
118	1224780 917 5173 328667 2 60 59 5 5 295 1475
139	1225697 19672 238 328180 1.11 59.91 589 -2.5384041056436 1.796190729809 -22.540996733712 979.39676970674
138	1245369 19815 238 328180 1.11 59.91 589 -2.2872629571477 1.7243486200986 -19.246076796616 688.6185254654
137	1265184 13259 238 328180 1.11 59.91 589 36.55 36.55 21527.95 786846.5725
136	1278443 19083 238 328180 1.11 59.91 589 59.383172225952 1593.8972889454 500786.03398021 539471258.08348
135	1297526 19082 238 328180 1.11 59.91 589 20.624292463189 29.706849415803 15372.25066364 404498.38707015
133	1316608 20276 238 328180 1.11 59.91 589 -1.9916711510923 0.85937178618779 -30.186415372698 279.03849860481
132	1336884 19083 238 328180 1.11 59.91 589 6.2026720854158 20.006916377624 9288.4087245101 161952.95092439
134	1355967 10903 238 328180 1.11 59.91 589 6 6 3534 21204
146	1366870 24287 970 328350 1.248713681163 59.948703581901 588 0.09999928053 0.100012777689 58.799989181624 5.8799978401793
145	1391157 24288 1268 328654 1.297803801938 59.997807361755 588 0.099999280533 0.100012872871 58.800002840703 5.8800005721548
144	1415445 16711 970 328350 1.248713681163 59.948703581901 588 6 6 3528 21168
143	1432156 16700 1268 328654 1.297803801938 59.997807361755 588 6 6 3528 21168
142	1448856 917 5174 328668 2 60 59 0 0 0 0
141	1449773 1272 5174 328668 2 60 59 0.023297 0.02625 1.545797 0.040508375209
140	1451045 917 5174 328668 2 60 59 6 6 354 2124
161	1451962 18985 239 328181 1.11 59.91 589 -2.2408400814285 1.7976816460599 -27.844158077698 995.32157411324
160	1470947 19821 239 328181 1.11 59.91 589 -2.123100520711 1.7287463227451 -24.274438614139 687.00124463999
159	1490768 13259 239 328181 1.11 59.91 589 36.55 36.55 21527.95 786846.5725
158	1504027 19089 239 328181 1.11 59.91 589 35.383171749115 1574.3260047009 488995.10543141 521584830.44729
157	1523116 19067 239 328181 1.11 59.91 589 21.440035156905 29.710144135823 15416.361987874 406368.52031306
155	1542183 20351 239 328181 1.11 59.91 589 -1.4489549655938 0.66736309943945 -43.918863465373 184.83717169002
154	1562534 19085 239 328181 1.11 59.91 589 7.5327666229921 20.011309407888 9435.8107752841 164552.06110463
156	1581619 10903 239 328181 1.11 59.91 589 7 7 4123 28861
168	1592522 24278 1040 328420 1.263894761218 59.963884647268 588 0.099999280531 0.100012782831 58.799989166936 5.8799978372424
167	1616800 24278 1274 328660 1.297803881994 59.997807427172 588 0.099999280535 0.100012873088 58.800002826064 5.880000569227
166	1641078 16697 1040 328420 1.263894761218 59.963884647268 588 7 7 4116 28812
165	1657775 16693 1274 328660 1.297803881994 59.997807427172 588 7 7 4116 28812
164	1674468 917 5175 328669 2 60 59 0 0 0 0
163	1675385 1272 5175 328669 2 60 59 0.023297 0.02625 1.545797 0.040508375209
162	1676657 917 5175 328669 2 60 59 7 7 413 2891
