file 1683722 1512142043                                         
version 2
run SinusoidalSpeedInjectionAttack-122-20171201-16:26:43-89168
attr CACCSpacing 5
attr attackAcc -30
attr attackPos 7
attr attackSpeed 50
attr attackStart 30
attr attacker 3
attr beaconInterval 0.1
attr configname SinusoidalSpeedInjectionAttack
attr controller 1
attr datetime 20171201-16:26:43
attr experiment SinusoidalSpeedInjectionAttack
attr fakeAcc "(3 == 4)"
attr fakePos "(3 == 2)"
attr fakeSpeed "(3 == 3)"
attr inifile omnetpp_122.ini
attr iterationvars "$attacker=3, $attackSpeed=50, $attackPos=7, $attackAcc=-30, $leaderSpeed=50, $controller=1, $CACCSpacing=5, $sController=\"CACC\", $attackStart=30, $0=5, $1=0, $nCars=8, $platoonSize=8, $nLanes=1, $beaconInterval=0.1, $priority=2, $packetSize=200, $ploegH=0.5, $leaderHeadway=1.2, $fakeSpeed=(3 == 3), $fakeAcc=(3 == 4), $fakePos=(3 == 2)"
attr iterationvarsf attacker=3,attackSpeed=50,attackPos=7,attackAcc=-30,leaderSpeed=50,controller=1,CACCSpacing=5,sController=CACC,attackStart=30,5,0,nCars=8,platoonSize=8,nLanes=1,beaconInterval=0.1,priority=2,packetSize=200,ploegH=0.5,leaderHeadway=1.2,fakeSpeed=(3_==_3),fakeAcc=(3_==_4),fakePos=(3_==_2)-
attr leaderHeadway 1.2
attr leaderSpeed 50
attr measurement "$attacker=3, $attackSpeed=50, $attackPos=7, $attackAcc=-30, $leaderSpeed=50, $controller=1, $CACCSpacing=5, $sController=\"CACC\", $attackStart=30, $0=5, $1=0, $nCars=8, $platoonSize=8, $nLanes=1, $beaconInterval=0.1, $priority=2, $packetSize=200, $ploegH=0.5, $leaderHeadway=1.2, $fakeSpeed=(3 == 3), $fakeAcc=(3 == 4), $fakePos=(3 == 2)"
attr nCars 8
attr nLanes 1
attr network scenario
attr packetSize 200
attr platoonSize 8
attr ploegH 0.5
attr priority 2
attr processid 89168
attr repetition 2
attr replication #2
attr resultdir results
attr runnumber 122
attr sController "\"CACC\""
attr seedset 2
param **.coreDebug false
param **.debug false
param **.headway 0.1s
param **.numberOfCars 8
param **.numberOfCarsPerPlatoon 8
param **.numberOfLanes 1
param **.numericController 1
param **.traffic.nCars 8
param **.traffic.nLanes 1
param **.traffic.platoonInsertDistance 5m
param **.traffic.platoonInsertHeadway 0s
param **.traffic.platoonInsertSpeed 50kmph
param **.traffic.platoonInsertTime "1 s"
param **.traffic.platoonLeaderHeadway 1.2s
param **.traffic.platoonSize 8
param **.traffic.platooningVType "\"vtypeauto\""
param **.traffic_type "\"PlatoonsTrafficManager\""
param *.**.nic.mac1609_4.bitrate 6Mbps
param *.**.nic.mac1609_4.txPower 100mW
param *.**.nic.mac1609_4.useServiceChannel false
param *.**.nic.phy80211p.analogueModels "xmldoc(\"config.xml\")"
param *.**.nic.phy80211p.decider "xmldoc(\"config.xml\")"
param *.**.nic.phy80211p.maxTXPower 100mW
param *.**.nic.phy80211p.sensitivity -94dBm
param *.**.nic.phy80211p.thermalNoise -95dBm
param *.**.nic.phy80211p.usePropagationDelay true
param *.**.nic.phy80211p.useThermalNoise true
param *.annotations.draw false
param *.connectionManager.alpha 2.0
param *.connectionManager.carrierFrequency "5.890e9 Hz"
param *.connectionManager.pMax 100mW
param *.connectionManager.sat -94dBm
param *.connectionManager.sendDirect true
param *.manager.autoShutdown true
param *.manager.commandLine "\"sumo --remote-port $port --seed $seed --configuration-file $configFile\""
param *.manager.configFile "\"./sumocfg/freeway.sumo.cfg\""
param *.manager.host "\"localhost\""
param *.manager.margin 25
param *.manager.moduleDisplayString "\"\""
param *.manager.moduleName "\"node\""
param *.manager.moduleType "\"Car\""
param *.manager.updateInterval 0.01s
param *.node[*].appl.attackStart 30s
param *.node[*].appl.attackerType 3
param *.node[*].appl.simulationDuration "60 s"
param *.node[*].appl_type "\"SimplePlatooningApp\""
param *.node[*].helper.nCars 8
param *.node[*].helper.nLanes 1
param *.node[*].helper.platoonSize 8
param *.node[*].helper_type "\"PositionHelper\""
param *.node[*].mobility.x 0
param *.node[*].mobility.y 0
param *.node[*].mobility.z 1.895
param *.node[*].prot.attackStart 30s
param *.node[*].prot.attackerType 3
param *.node[*].prot.attackingNode 3
param *.node[*].prot.beaconingInterval 0.1s
param *.node[*].prot.fakeAcc "(3 == 4)"
param *.node[*].prot.fakePos "(3 == 2)"
param *.node[*].prot.fakeSpeed "(3 == 3)"
param *.node[*].prot.maliciousAcc "-30 mpss"
param *.node[*].prot.maliciousSpeed 50kmph
param *.node[*].prot.packetSize 200
param *.node[*].prot.priority 2
param *.node[*].prot.shiftX "7 m"
param *.node[*].prot.useControllerAcceleration true
param *.node[*].protocol_type "\"SimplePlatooningBeaconing\""
param *.node[*].scenario.accHeadway 0.1s
param *.node[*].scenario.caccC1 0.5
param *.node[*].scenario.caccOmegaN "0.2 Hz"
param *.node[*].scenario.caccSpacing 5m
param *.node[*].scenario.caccXi 1
param *.node[*].scenario.controller "\"CACC\""
param *.node[*].scenario.engineTau "0.5 s"
param *.node[*].scenario.leaderHeadway 1.2s
param *.node[*].scenario.leaderSpeed 50kmph
param *.node[*].scenario.ploegH 0.5s
param *.node[*].scenario.ploegKd 0.7
param *.node[*].scenario.ploegKp 0.2
param *.node[*].scenario.useRealisticEngine false
param *.node[*].scenario_type "\"SinusoidalScenario\""
param *.node[*].unicast.packetLossRate 0
param *.obstacles.debug false
param *.playgroundSizeX 65000m
param *.playgroundSizeY 25000m
param *.playgroundSizeZ 50m
param *.world.use2D false
param *.world.useTorus false

vector 0  scenario.node[0].appl  distance  ETV
vector 1  scenario.node[0].appl  relativeSpeed  ETV
vector 2  scenario.node[0].appl  nodeId  ETV
vector 6  scenario.node[0].appl  acceleration  ETV
vector 7  scenario.node[0].appl  controllerAcceleration  ETV
vector 3  scenario.node[0].appl  speed  ETV
vector 4  scenario.node[0].appl  posx  ETV
vector 5  scenario.node[0].appl  posy  ETV
vector 22  scenario.node[1].appl  distance  ETV
vector 23  scenario.node[1].appl  relativeSpeed  ETV
vector 24  scenario.node[1].appl  nodeId  ETV
vector 28  scenario.node[1].appl  acceleration  ETV
vector 29  scenario.node[1].appl  controllerAcceleration  ETV
vector 25  scenario.node[1].appl  speed  ETV
vector 26  scenario.node[1].appl  posx  ETV
vector 27  scenario.node[1].appl  posy  ETV
vector 44  scenario.node[2].appl  distance  ETV
vector 45  scenario.node[2].appl  relativeSpeed  ETV
vector 46  scenario.node[2].appl  nodeId  ETV
vector 50  scenario.node[2].appl  acceleration  ETV
vector 51  scenario.node[2].appl  controllerAcceleration  ETV
vector 47  scenario.node[2].appl  speed  ETV
vector 48  scenario.node[2].appl  posx  ETV
vector 49  scenario.node[2].appl  posy  ETV
vector 66  scenario.node[3].appl  distance  ETV
vector 67  scenario.node[3].appl  relativeSpeed  ETV
vector 68  scenario.node[3].appl  nodeId  ETV
vector 72  scenario.node[3].appl  acceleration  ETV
vector 73  scenario.node[3].appl  controllerAcceleration  ETV
vector 69  scenario.node[3].appl  speed  ETV
vector 70  scenario.node[3].appl  posx  ETV
vector 71  scenario.node[3].appl  posy  ETV
vector 88  scenario.node[4].appl  distance  ETV
vector 89  scenario.node[4].appl  relativeSpeed  ETV
vector 90  scenario.node[4].appl  nodeId  ETV
vector 94  scenario.node[4].appl  acceleration  ETV
vector 95  scenario.node[4].appl  controllerAcceleration  ETV
vector 91  scenario.node[4].appl  speed  ETV
vector 92  scenario.node[4].appl  posx  ETV
vector 93  scenario.node[4].appl  posy  ETV
vector 110  scenario.node[5].appl  distance  ETV
vector 111  scenario.node[5].appl  relativeSpeed  ETV
vector 112  scenario.node[5].appl  nodeId  ETV
vector 116  scenario.node[5].appl  acceleration  ETV
vector 117  scenario.node[5].appl  controllerAcceleration  ETV
vector 113  scenario.node[5].appl  speed  ETV
vector 114  scenario.node[5].appl  posx  ETV
vector 115  scenario.node[5].appl  posy  ETV
vector 132  scenario.node[6].appl  distance  ETV
vector 133  scenario.node[6].appl  relativeSpeed  ETV
vector 134  scenario.node[6].appl  nodeId  ETV
vector 138  scenario.node[6].appl  acceleration  ETV
vector 139  scenario.node[6].appl  controllerAcceleration  ETV
vector 135  scenario.node[6].appl  speed  ETV
vector 136  scenario.node[6].appl  posx  ETV
vector 137  scenario.node[6].appl  posy  ETV
vector 154  scenario.node[7].appl  distance  ETV
vector 155  scenario.node[7].appl  relativeSpeed  ETV
vector 156  scenario.node[7].appl  nodeId  ETV
vector 160  scenario.node[7].appl  acceleration  ETV
vector 161  scenario.node[7].appl  controllerAcceleration  ETV
vector 157  scenario.node[7].appl  speed  ETV
vector 158  scenario.node[7].appl  posx  ETV
vector 159  scenario.node[7].appl  posy  ETV
vector 168  scenario.node[7].prot  frontDelay  ETV
vector 166  scenario.node[7].prot  frontDelayId  ETV
vector 146  scenario.node[6].prot  frontDelay  ETV
vector 144  scenario.node[6].prot  frontDelayId  ETV
vector 35  scenario.node[1].prot  leaderDelay  ETV
vector 33  scenario.node[1].prot  leaderDelayId  ETV
vector 36  scenario.node[1].prot  frontDelay  ETV
vector 34  scenario.node[1].prot  frontDelayId  ETV
vector 57  scenario.node[2].prot  leaderDelay  ETV
vector 55  scenario.node[2].prot  leaderDelayId  ETV
vector 79  scenario.node[3].prot  leaderDelay  ETV
vector 77  scenario.node[3].prot  leaderDelayId  ETV
vector 101  scenario.node[4].prot  leaderDelay  ETV
vector 99  scenario.node[4].prot  leaderDelayId  ETV
vector 123  scenario.node[5].prot  leaderDelay  ETV
vector 121  scenario.node[5].prot  leaderDelayId  ETV
vector 145  scenario.node[6].prot  leaderDelay  ETV
vector 143  scenario.node[6].prot  leaderDelayId  ETV
vector 167  scenario.node[7].prot  leaderDelay  ETV
vector 165  scenario.node[7].prot  leaderDelayId  ETV
vector 102  scenario.node[4].prot  frontDelay  ETV
vector 100  scenario.node[4].prot  frontDelayId  ETV
vector 80  scenario.node[3].prot  frontDelay  ETV
vector 78  scenario.node[3].prot  frontDelayId  ETV
vector 124  scenario.node[5].prot  frontDelay  ETV
vector 122  scenario.node[5].prot  frontDelayId  ETV
vector 58  scenario.node[2].prot  frontDelay  ETV
vector 56  scenario.node[2].prot  frontDelayId  ETV
vector 8  scenario.node[0].prot  nodeId  ETV
vector 9  scenario.node[0].prot  busyTime  ETV
vector 10  scenario.node[0].prot  collisions  ETV
vector 30  scenario.node[1].prot  nodeId  ETV
vector 31  scenario.node[1].prot  busyTime  ETV
vector 32  scenario.node[1].prot  collisions  ETV
vector 52  scenario.node[2].prot  nodeId  ETV
vector 53  scenario.node[2].prot  busyTime  ETV
vector 54  scenario.node[2].prot  collisions  ETV
vector 74  scenario.node[3].prot  nodeId  ETV
vector 75  scenario.node[3].prot  busyTime  ETV
vector 76  scenario.node[3].prot  collisions  ETV
vector 96  scenario.node[4].prot  nodeId  ETV
vector 97  scenario.node[4].prot  busyTime  ETV
vector 98  scenario.node[4].prot  collisions  ETV
vector 118  scenario.node[5].prot  nodeId  ETV
vector 119  scenario.node[5].prot  busyTime  ETV
vector 120  scenario.node[5].prot  collisions  ETV
vector 140  scenario.node[6].prot  nodeId  ETV
vector 141  scenario.node[6].prot  busyTime  ETV
vector 142  scenario.node[6].prot  collisions  ETV
vector 162  scenario.node[7].prot  nodeId  ETV
vector 163  scenario.node[7].prot  busyTime  ETV
vector 164  scenario.node[7].prot  collisions  ETV
7	11077 13860 232 328174 1.11 59.91 589 -1.5 1.5 -14.445969899918 993.24092361736
6	24937 18587 232 328174 1.11 59.91 589 -1.472274679513 1.4513434175798 -12.507264912644 675.29835211523
5	43524 12081 232 328174 1.11 59.91 589 36.55 36.55 21527.95 786846.5725
4	55605 17894 232 328174 1.11 59.91 589 99.282191848622 920.26499034657 301076.41413635 186948167.52564
3	73499 17901 232 328174 1.11 59.91 589 12.599076970844 15.853603639796 8223.2832500118 115251.79065057
1	91400 9725 232 328174 1.11 59.91 589 0 0 0 0
0	101125 10314 232 328174 1.11 59.91 589 -1 -1 -589 589
2	111439 9725 232 328174 1.11 59.91 589 0 0 0 0
10	121164 858 5168 328662 2 60 59 0 0 0 0
9	122022 1154 5168 328662 2 60 59 0.023297 0.02625 1.545797 0.040508375209
8	123176 799 5168 328662 2 60 59 0 0 0 0
29	123975 19072 233 328175 1.11 59.91 589 -1.5233934313509 1.5241491847198 -15.644306191955 1008.6178876286
28	143047 19164 233 328175 1.11 59.91 589 -1.4872877336979 1.4632261139667 -12.161302435464 682.72590247941
27	162211 12670 233 328175 1.11 59.91 589 36.55 36.55 21527.95 786846.5725
26	174881 18510 233 328175 1.11 59.91 589 90.282188034058 911.35238942425 295772.57965438 181575096.57014
25	193391 18506 233 328175 1.11 59.91 589 12.591433427328 15.859016328899 8224.1706976157 115281.17521755
23	211897 20094 233 328175 1.11 59.91 589 -0.085370881351961 0.0854927136455 -0.7623749548312 2.4587008240423
22	231991 18506 233 328175 1.11 59.91 589 4.9087708102102 5.1291570099126 2947.8522309273 14755.7021967
24	250497 10314 233 328175 1.11 59.91 589 1 1 589 589
36	260811 23699 1034 328420 1.262216930646 59.962210424865 588 0.099998657928 0.10001166314 58.799992154677 5.8799984400408
35	284510 23699 1034 328420 1.262216930646 59.962210424865 588 0.099998657928 0.10001166314 58.799992154677 5.8799984400408
34	308209 16118 1034 328420 1.262216930646 59.962210424865 588 1 1 588 588
33	324327 16118 1034 328420 1.262216930646 59.962210424865 588 1 1 588 588
32	340445 858 5169 328663 2 60 59 0 0 0 0
31	341303 1213 5169 328663 2 60 59 0.023296 0.02625 1.545796 0.040508328616
30	342516 858 5169 328663 2 60 59 1 1 59 59
51	343374 19053 234 328176 1.11 59.91 589 -1.4963007063708 1.4967154524215 -15.600413512091 968.87064539026
50	362427 19139 234 328176 1.11 59.91 589 -1.4778825499601 1.4526250281065 -11.962441902634 676.10348447111
49	381566 12670 234 328176 1.11 59.91 589 36.55 36.55 21527.95 786846.5725
48	394236 18491 234 328176 1.11 59.91 589 81.282188034058 902.3726594346 290470.13686514 176298148.2042
47	412727 18490 234 328176 1.11 59.91 589 12.597629590285 15.853308341145 8224.3806056764 115282.24626928
45	431217 20290 234 328176 1.11 59.91 589 -0.019406092240807 0.017598487203578 -0.088295036280076 0.067637855338809
44	451507 18486 234 328176 1.11 59.91 589 4.9754374488111 5.0458892887129 2946.4469873984 14739.651242699
46	469993 10314 234 328176 1.11 59.91 589 2 2 1178 2356
58	480307 23713 1312 328707 1.302609200833 60.002602695755 588 0.099998658024 0.10001166295 58.80000515538 5.8800010403156
57	504020 23687 1040 328426 1.262216960667 59.962210454814 588 0.09999865792 0.10001166314 58.799992154605 5.8799984400264
56	527707 16130 1312 328707 1.302609200833 60.002602695755 588 2 2 1176 2352
55	543837 16114 1040 328426 1.262216960667 59.962210454814 588 2 2 1176 2352
54	559951 858 5170 328664 2 60 59 0 0 0 0
53	560809 1213 5170 328664 2 60 59 0.023297 0.02625 1.545797 0.040508375209
52	562022 858 5170 328664 2 60 59 2 2 118 236
73	562880 19092 235 328177 1.11 59.91 589 -1.5144504184155 1.5154441727111 -15.649347626552 989.50885204969
72	581972 19169 235 328177 1.11 59.91 589 -1.4663369027497 1.4406330779313 -11.762332827875 664.13525995067
71	601141 12670 235 328177 1.11 59.91 589 36.55 36.55 21527.95 786846.5725
70	613811 18497 235 328177 1.11 59.91 589 72.282188034058 893.38378833492 285167.69062399 171116706.12231
69	632308 18495 235 328177 1.11 59.91 589 12.609282620683 15.840833680872 8224.4991670192 115278.10384703
67	650803 20421 235 328177 1.11 59.91 589 -0.015760221391654 0.014948752827303 0.0010630762366937 0.036749294655968
66	671224 18486 235 328177 1.11 59.91 589 4.9816113850634 5.0406527671715 2946.4486123807 14739.598987638
68	689710 10314 235 328177 1.11 59.91 589 3 3 1767 5301
80	700024 23703 1176 328562 1.287873050729 59.987879544754 588 0.099998657909 0.10001166287 58.800005154483 5.8800010401362
79	723727 23709 1046 328432 1.262216990687 59.962210484795 588 0.099998657917 0.100011663143 58.799992154566 5.8799984400186
78	747436 16127 1176 328562 1.287873050729 59.987879544754 588 3 3 1764 5292
77	763563 16117 1046 328432 1.262216990687 59.962210484795 588 3 3 1764 5292
76	779680 858 5171 328665 2 60 59 0 0 0 0
75	780538 1213 5171 328665 2 60 59 0.023297 0.02625 1.545797 0.040508375209
74	781751 858 5171 328665 2 60 59 3 3 177 531
95	782609 19063 236 328178 1.11 59.91 589 -1.9028714208918 1.9050794393375 -16.250206944212 1079.0250762836
94	801672 19171 236 328178 1.11 59.91 589 -1.5190709774192 1.5213606835029 -13.683269895856 730.22024068264
93	820843 12670 236 328178 1.11 59.91 589 36.55 36.55 21527.95 786846.5725
92	833513 18490 236 328178 1.11 59.91 589 63.282188034058 884.235154286 279889.59956275 166059248.24014
91	852003 18496 236 328178 1.11 59.91 589 12.454851053498 15.82807324239 8222.9437203679 115275.64869658
89	870499 19982 236 328178 1.11 59.91 589 -0.28883652810974 0.31498460762172 1.6730699794956 12.770478209755
88	890481 18495 236 328178 1.11 59.91 589 4.5432765277759 5.211530696646 2922.0599523086 14506.425917109
90	908976 10314 236 328178 1.11 59.91 589 4 4 2356 9424
102	919290 24273 1108 328494 1.276579020708 59.97658551535 588 0.099998657984 0.100011662875 58.8000051551 5.8800010402596
101	943563 24271 1052 328438 1.262217020708 59.962210515343 588 0.099998657982 0.100011663146 58.799992155093 5.879998440124
100	967834 16695 1108 328494 1.276579020708 59.97658551535 588 4 4 2352 9408
99	984529 16104 1052 328438 1.262217020708 59.962210515343 588 4 4 2352 9408
98	1000633 858 5172 328666 2 60 59 0 0 0 0
97	1001491 1213 5172 328666 2 60 59 0.023297 0.02625 1.545797 0.040508375209
96	1002704 858 5172 328666 2 60 59 4 4 236 944
117	1003562 19654 237 328179 1.11 59.91 589 -1.7098646254323 1.7032872428045 -16.148947215369 1048.4016054132
116	1023216 19750 237 328179 1.11 59.91 589 -1.4691757400783 1.4640914901165 -12.869145061422 703.1586259857
115	1042966 13259 237 328179 1.11 59.91 589 36.55 36.55 21527.95 786846.5725
114	1056225 19081 237 328179 1.11 59.91 589 54.282189941406 875.32741236611 274586.41493413 161068134.69031
113	1075306 19088 237 328179 1.11 59.91 589 12.521815279542 15.829321964362 8223.8958180188 115284.96302133
111	1094394 20550 237 328179 1.11 59.91 589 -0.14974053504291 0.12785583297874 -0.81526495185331 2.454364684521
110	1114944 19095 237 328179 1.11 59.91 589 4.8658858416975 5.1860833865559 2947.203670573 14749.271249477
112	1134039 10903 237 328179 1.11 59.91 589 5 5 2945 14725
124	1144942 24295 1244 328624 1.297503110771 59.997509605007 588 0.099998657933 0.100011662942 58.800005154694 5.8800010401784
123	1169237 24276 1058 328444 1.262217050729 59.962210545043 588 0.099998657941 0.100011663147 58.799992154772 5.8799984400598
122	1193513 16713 1244 328624 1.297503110771 59.997509605007 588 5 5 2940 14700
121	1210226 16699 1058 328444 1.262217050729 59.962210545043 588 5 5 2940 14700
120	1226925 917 5173 328667 2 60 59 0 0 0 0
119	1227842 1272 5173 328667 2 60 59 0.023297 0.02625 1.545797 0.040508375209
118	1229114 917 5173 328667 2 60 59 5 5 295 1475
139	1230031 19655 238 328180 1.11 59.91 589 -1.5973051129561 1.5917333210688 -16.072619310196 1001.8334697009
138	1249686 19789 238 328180 1.11 59.91 589 -1.4651949204886 1.4603702636915 -12.25243421182 686.84359159981
137	1269475 13259 238 328180 1.11 59.91 589 36.55 36.55 21527.95 786846.5725
136	1282734 19077 238 328180 1.11 59.91 589 45.282189941406 866.39364432076 269283.17812568 156172490.99378
135	1301811 19079 238 328180 1.11 59.91 589 12.55703735372 15.832768134983 8224.5805784636 115293.99450412
133	1320890 20923 238 328180 1.11 59.91 589 -0.093112356099674 0.082154469364395 -0.55606899422231 1.0349120466916
132	1341813 19057 238 328180 1.11 59.91 589 4.9054244479423 5.1376003838363 2947.2505036573 14748.643693895
134	1360870 10903 238 328180 1.11 59.91 589 6 6 3534 21204
146	1371773 24298 970 328356 1.247594780542 59.947601275036 588 0.099998657952 0.100011663076 58.800005154952 5.88000104023
145	1396071 24292 1064 328450 1.26221708075 59.962210574832 588 0.099998657915 0.100011663144 58.79999215454 5.8799984400134
144	1420363 16706 970 328356 1.247594780542 59.947601275036 588 6 6 3528 21168
143	1437069 16716 1064 328450 1.26221708075 59.962210574832 588 6 6 3528 21168
142	1453785 917 5174 328668 2 60 59 0 0 0 0
141	1454702 1272 5174 328668 2 60 59 0.023297 0.02625 1.545797 0.040508375209
140	1455974 917 5174 328668 2 60 59 6 6 354 2124
161	1456891 19639 239 328181 1.11 59.91 589 -1.5333438564652 1.5335180059483 -15.776207637313 960.4250311852
160	1476530 19759 239 328181 1.11 59.91 589 -1.4553421949323 1.45021959539 -11.880110193234 670.53098808449
159	1496289 13259 239 328181 1.11 59.91 589 36.55 36.55 21527.95 786846.5725
158	1509548 19081 239 328181 1.11 59.91 589 36.282188987732 857.4192177907 263979.86864756 151372095.99403
157	1528629 19079 239 328181 1.11 59.91 589 12.58590267419 15.826655963809 8224.849457183 115291.25360191
155	1547708 20942 239 328181 1.11 59.91 589 -0.035518647231946 0.032460332577955 -0.14635437730892 0.16242243727381
154	1568650 19079 239 328181 1.11 59.91 589 4.95241403726 5.0776335104272 2947.3148556966 14748.451229141
156	1587729 10903 239 328181 1.11 59.91 589 7 7 4123 28861
168	1598632 24281 832 328218 1.212136690479 59.91213018551 588 0.099998658011 0.100011663088 58.799992155489 5.8799984402032
167	1622913 24289 1070 328456 1.26221711077 59.962210604762 588 0.099998657906 0.100011663145 58.79999215445 5.8799984399954
166	1647202 16707 832 328218 1.212136690479 59.91213018551 588 7 7 4116 28812
165	1663909 16707 1070 328456 1.26221711077 59.962210604762 588 7 7 4116 28812
164	1680616 917 5175 328669 2 60 59 0 0 0 0
163	1681533 1272 5175 328669 2 60 59 0.023297 0.02625 1.545797 0.040508375209
162	1682805 917 5175 328669 2 60 59 7 7 413 2891
