file 909244 1512142471                                          
version 2
run SinusoidalSpeedInjectionAttack-223-20171201-16:34:15-108996
attr CACCSpacing 5
attr attackAcc -30
attr attackPos 7
attr attackSpeed 100
attr attackStart 30
attr attacker 3
attr beaconInterval 0.1
attr configname SinusoidalSpeedInjectionAttack
attr controller 1
attr datetime 20171201-16:34:15
attr experiment SinusoidalSpeedInjectionAttack
attr fakeAcc "(3 == 4)"
attr fakePos "(3 == 2)"
attr fakeSpeed "(3 == 3)"
attr inifile omnetpp_223.ini
attr iterationvars "$attacker=3, $attackSpeed=100, $attackPos=7, $attackAcc=-30, $leaderSpeed=150, $controller=1, $CACCSpacing=5, $sController=\"CACC\", $attackStart=30, $0=5, $1=0, $nCars=8, $platoonSize=8, $nLanes=1, $beaconInterval=0.1, $priority=2, $packetSize=200, $ploegH=0.5, $leaderHeadway=1.2, $fakeSpeed=(3 == 3), $fakeAcc=(3 == 4), $fakePos=(3 == 2)"
attr iterationvarsf attacker=3,attackSpeed=100,attackPos=7,attackAcc=-30,leaderSpeed=150,controller=1,CACCSpacing=5,sController=CACC,attackStart=30,5,0,nCars=8,platoonSize=8,nLanes=1,beaconInterval=0.1,priority=2,packetSize=200,ploegH=0.5,leaderHeadway=1.2,fakeSpeed=(3_==_3),fakeAcc=(3_==_4),fakePos=(3_==_2)-
attr leaderHeadway 1.2
attr leaderSpeed 150
attr measurement "$attacker=3, $attackSpeed=100, $attackPos=7, $attackAcc=-30, $leaderSpeed=150, $controller=1, $CACCSpacing=5, $sController=\"CACC\", $attackStart=30, $0=5, $1=0, $nCars=8, $platoonSize=8, $nLanes=1, $beaconInterval=0.1, $priority=2, $packetSize=200, $ploegH=0.5, $leaderHeadway=1.2, $fakeSpeed=(3 == 3), $fakeAcc=(3 == 4), $fakePos=(3 == 2)"
attr nCars 8
attr nLanes 1
attr network scenario
attr packetSize 200
attr platoonSize 8
attr ploegH 0.5
attr priority 2
attr processid 108996
attr repetition 3
attr replication #3
attr resultdir results
attr runnumber 223
attr sController "\"CACC\""
attr seedset 3
param **.coreDebug false
param **.debug false
param **.headway 0.1s
param **.numberOfCars 8
param **.numberOfCarsPerPlatoon 8
param **.numberOfLanes 1
param **.numericController 1
param **.traffic.nCars 8
param **.traffic.nLanes 1
param **.traffic.platoonInsertDistance 5m
param **.traffic.platoonInsertHeadway 0s
param **.traffic.platoonInsertSpeed 150kmph
param **.traffic.platoonInsertTime "1 s"
param **.traffic.platoonLeaderHeadway 1.2s
param **.traffic.platoonSize 8
param **.traffic.platooningVType "\"vtypeauto\""
param **.traffic_type "\"PlatoonsTrafficManager\""
param *.**.nic.mac1609_4.bitrate 6Mbps
param *.**.nic.mac1609_4.txPower 100mW
param *.**.nic.mac1609_4.useServiceChannel false
param *.**.nic.phy80211p.analogueModels "xmldoc(\"config.xml\")"
param *.**.nic.phy80211p.decider "xmldoc(\"config.xml\")"
param *.**.nic.phy80211p.maxTXPower 100mW
param *.**.nic.phy80211p.sensitivity -94dBm
param *.**.nic.phy80211p.thermalNoise -95dBm
param *.**.nic.phy80211p.usePropagationDelay true
param *.**.nic.phy80211p.useThermalNoise true
param *.annotations.draw false
param *.connectionManager.alpha 2.0
param *.connectionManager.carrierFrequency "5.890e9 Hz"
param *.connectionManager.pMax 100mW
param *.connectionManager.sat -94dBm
param *.connectionManager.sendDirect true
param *.manager.autoShutdown true
param *.manager.commandLine "\"sumo --remote-port $port --seed $seed --configuration-file $configFile\""
param *.manager.configFile "\"./sumocfg/freeway.sumo.cfg\""
param *.manager.host "\"localhost\""
param *.manager.margin 25
param *.manager.moduleDisplayString "\"\""
param *.manager.moduleName "\"node\""
param *.manager.moduleType "\"Car\""
param *.manager.updateInterval 0.01s
param *.node[*].appl.attackStart 30s
param *.node[*].appl.attackerType 3
param *.node[*].appl.simulationDuration "60 s"
param *.node[*].appl_type "\"SimplePlatooningApp\""
param *.node[*].helper.nCars 8
param *.node[*].helper.nLanes 1
param *.node[*].helper.platoonSize 8
param *.node[*].helper_type "\"PositionHelper\""
param *.node[*].mobility.x 0
param *.node[*].mobility.y 0
param *.node[*].mobility.z 1.895
param *.node[*].prot.attackStart 30s
param *.node[*].prot.attackerType 3
param *.node[*].prot.attackingNode 3
param *.node[*].prot.beaconingInterval 0.1s
param *.node[*].prot.fakeAcc "(3 == 4)"
param *.node[*].prot.fakePos "(3 == 2)"
param *.node[*].prot.fakeSpeed "(3 == 3)"
param *.node[*].prot.maliciousAcc "-30 mpss"
param *.node[*].prot.maliciousSpeed 100kmph
param *.node[*].prot.packetSize 200
param *.node[*].prot.priority 2
param *.node[*].prot.shiftX "7 m"
param *.node[*].prot.useControllerAcceleration true
param *.node[*].protocol_type "\"SimplePlatooningBeaconing\""
param *.node[*].scenario.accHeadway 0.1s
param *.node[*].scenario.caccC1 0.5
param *.node[*].scenario.caccOmegaN "0.2 Hz"
param *.node[*].scenario.caccSpacing 5m
param *.node[*].scenario.caccXi 1
param *.node[*].scenario.controller "\"CACC\""
param *.node[*].scenario.engineTau "0.5 s"
param *.node[*].scenario.leaderHeadway 1.2s
param *.node[*].scenario.leaderSpeed 150kmph
param *.node[*].scenario.ploegH 0.5s
param *.node[*].scenario.ploegKd 0.7
param *.node[*].scenario.ploegKp 0.2
param *.node[*].scenario.useRealisticEngine false
param *.node[*].scenario_type "\"SinusoidalScenario\""
param *.node[*].unicast.packetLossRate 0
param *.obstacles.debug false
param *.playgroundSizeX 65000m
param *.playgroundSizeY 25000m
param *.playgroundSizeZ 50m
param *.world.use2D false
param *.world.useTorus false

vector 0  scenario.node[0].appl  distance  ETV
vector 1  scenario.node[0].appl  relativeSpeed  ETV
vector 2  scenario.node[0].appl  nodeId  ETV
vector 6  scenario.node[0].appl  acceleration  ETV
vector 7  scenario.node[0].appl  controllerAcceleration  ETV
vector 3  scenario.node[0].appl  speed  ETV
vector 4  scenario.node[0].appl  posx  ETV
vector 5  scenario.node[0].appl  posy  ETV
vector 22  scenario.node[1].appl  distance  ETV
vector 23  scenario.node[1].appl  relativeSpeed  ETV
vector 24  scenario.node[1].appl  nodeId  ETV
vector 28  scenario.node[1].appl  acceleration  ETV
vector 29  scenario.node[1].appl  controllerAcceleration  ETV
vector 25  scenario.node[1].appl  speed  ETV
vector 26  scenario.node[1].appl  posx  ETV
vector 27  scenario.node[1].appl  posy  ETV
vector 44  scenario.node[2].appl  distance  ETV
vector 45  scenario.node[2].appl  relativeSpeed  ETV
vector 46  scenario.node[2].appl  nodeId  ETV
vector 50  scenario.node[2].appl  acceleration  ETV
vector 51  scenario.node[2].appl  controllerAcceleration  ETV
vector 47  scenario.node[2].appl  speed  ETV
vector 48  scenario.node[2].appl  posx  ETV
vector 49  scenario.node[2].appl  posy  ETV
vector 66  scenario.node[3].appl  distance  ETV
vector 67  scenario.node[3].appl  relativeSpeed  ETV
vector 68  scenario.node[3].appl  nodeId  ETV
vector 72  scenario.node[3].appl  acceleration  ETV
vector 73  scenario.node[3].appl  controllerAcceleration  ETV
vector 69  scenario.node[3].appl  speed  ETV
vector 70  scenario.node[3].appl  posx  ETV
vector 71  scenario.node[3].appl  posy  ETV
vector 88  scenario.node[4].appl  distance  ETV
vector 89  scenario.node[4].appl  relativeSpeed  ETV
vector 90  scenario.node[4].appl  nodeId  ETV
vector 94  scenario.node[4].appl  acceleration  ETV
vector 95  scenario.node[4].appl  controllerAcceleration  ETV
vector 91  scenario.node[4].appl  speed  ETV
vector 92  scenario.node[4].appl  posx  ETV
vector 93  scenario.node[4].appl  posy  ETV
vector 110  scenario.node[5].appl  distance  ETV
vector 111  scenario.node[5].appl  relativeSpeed  ETV
vector 112  scenario.node[5].appl  nodeId  ETV
vector 116  scenario.node[5].appl  acceleration  ETV
vector 117  scenario.node[5].appl  controllerAcceleration  ETV
vector 113  scenario.node[5].appl  speed  ETV
vector 114  scenario.node[5].appl  posx  ETV
vector 115  scenario.node[5].appl  posy  ETV
vector 132  scenario.node[6].appl  distance  ETV
vector 133  scenario.node[6].appl  relativeSpeed  ETV
vector 134  scenario.node[6].appl  nodeId  ETV
vector 138  scenario.node[6].appl  acceleration  ETV
vector 139  scenario.node[6].appl  controllerAcceleration  ETV
vector 135  scenario.node[6].appl  speed  ETV
vector 136  scenario.node[6].appl  posx  ETV
vector 137  scenario.node[6].appl  posy  ETV
vector 154  scenario.node[7].appl  distance  ETV
vector 155  scenario.node[7].appl  relativeSpeed  ETV
vector 156  scenario.node[7].appl  nodeId  ETV
vector 160  scenario.node[7].appl  acceleration  ETV
vector 161  scenario.node[7].appl  controllerAcceleration  ETV
vector 157  scenario.node[7].appl  speed  ETV
vector 158  scenario.node[7].appl  posx  ETV
vector 159  scenario.node[7].appl  posy  ETV
vector 35  scenario.node[1].prot  leaderDelay  ETV
vector 33  scenario.node[1].prot  leaderDelayId  ETV
vector 36  scenario.node[1].prot  frontDelay  ETV
vector 34  scenario.node[1].prot  frontDelayId  ETV
vector 57  scenario.node[2].prot  leaderDelay  ETV
vector 55  scenario.node[2].prot  leaderDelayId  ETV
vector 79  scenario.node[3].prot  leaderDelay  ETV
vector 77  scenario.node[3].prot  leaderDelayId  ETV
vector 101  scenario.node[4].prot  leaderDelay  ETV
vector 99  scenario.node[4].prot  leaderDelayId  ETV
vector 123  scenario.node[5].prot  leaderDelay  ETV
vector 121  scenario.node[5].prot  leaderDelayId  ETV
vector 145  scenario.node[6].prot  leaderDelay  ETV
vector 143  scenario.node[6].prot  leaderDelayId  ETV
vector 167  scenario.node[7].prot  leaderDelay  ETV
vector 165  scenario.node[7].prot  leaderDelayId  ETV
vector 168  scenario.node[7].prot  frontDelay  ETV
vector 166  scenario.node[7].prot  frontDelayId  ETV
vector 58  scenario.node[2].prot  frontDelay  ETV
vector 56  scenario.node[2].prot  frontDelayId  ETV
vector 124  scenario.node[5].prot  frontDelay  ETV
vector 122  scenario.node[5].prot  frontDelayId  ETV
vector 80  scenario.node[3].prot  frontDelay  ETV
vector 78  scenario.node[3].prot  frontDelayId  ETV
vector 146  scenario.node[6].prot  frontDelay  ETV
vector 144  scenario.node[6].prot  frontDelayId  ETV
vector 102  scenario.node[4].prot  frontDelay  ETV
vector 100  scenario.node[4].prot  frontDelayId  ETV
vector 8  scenario.node[0].prot  nodeId  ETV
vector 9  scenario.node[0].prot  busyTime  ETV
vector 10  scenario.node[0].prot  collisions  ETV
vector 30  scenario.node[1].prot  nodeId  ETV
vector 31  scenario.node[1].prot  busyTime  ETV
vector 32  scenario.node[1].prot  collisions  ETV
vector 52  scenario.node[2].prot  nodeId  ETV
vector 53  scenario.node[2].prot  busyTime  ETV
vector 54  scenario.node[2].prot  collisions  ETV
vector 74  scenario.node[3].prot  nodeId  ETV
vector 75  scenario.node[3].prot  busyTime  ETV
vector 76  scenario.node[3].prot  collisions  ETV
vector 96  scenario.node[4].prot  nodeId  ETV
vector 97  scenario.node[4].prot  busyTime  ETV
vector 98  scenario.node[4].prot  collisions  ETV
vector 118  scenario.node[5].prot  nodeId  ETV
vector 119  scenario.node[5].prot  busyTime  ETV
vector 120  scenario.node[5].prot  collisions  ETV
vector 140  scenario.node[6].prot  nodeId  ETV
vector 141  scenario.node[6].prot  busyTime  ETV
vector 142  scenario.node[6].prot  collisions  ETV
vector 162  scenario.node[7].prot  nodeId  ETV
vector 163  scenario.node[7].prot  busyTime  ETV
vector 164  scenario.node[7].prot  collisions  ETV
7	11090 7642 232 178133 1.11 33.01 320 -1.5 1.5 6.2460145522981 505.0598403155
6	18732 10037 232 178133 1.11 33.01 320 -1.4722746794739 1.4513407705138 10.778911944355 336.85162545381
5	28769 6432 232 178133 1.11 33.01 320 36.55 36.55 11696 427488.8
4	35201 9604 232 178133 1.11 33.01 320 106.51262168844 1440.1020440777 247751.6843956 239491246.32219
3	44805 9583 232 178133 1.11 33.01 320 40.376926150007 43.631381416411 13377.944418811 559516.89366367
1	54388 5152 232 178133 1.11 33.01 320 0 0 0 0
0	59540 5472 232 178133 1.11 33.01 320 -1 -1 -320 320
2	65012 5152 232 178133 1.11 33.01 320 0 0 0 0
10	70164 453 5056 177944 2 33 32 0 0 0 0
9	70617 828 5056 177944 2 33 32 0.022754155264 0.026262199507 0.836504005434 0.021878681534671
8	71445 421 5056 177944 2 33 32 0 0 0 0
29	71866 10293 233 178134 1.11 33.01 320 -1.5233934264462 1.5241492086194 7.4445875728204 510.66744573191
28	82159 10347 233 178134 1.11 33.01 320 -1.4872877100615 1.4632119897982 11.416988807839 340.14935717293
27	92506 6752 233 178134 1.11 33.01 320 36.55 36.55 11696 427488.8
26	99258 9920 233 178134 1.11 33.01 320 97.512621688843 1431.024511092 244868.68012683 235054221.69053
25	109178 9919 233 178134 1.11 33.01 320 40.369384324891 43.636793800984 13377.191074212 559456.2898679
23	119097 10815 233 178134 1.11 33.01 320 -0.085370600681763 0.085492926698635 0.64555547997213 1.2215521882711
22	129912 9917 233 178134 1.11 33.01 320 4.9094713881116 5.1291543764278 1602.9892018817 8031.0653424849
24	139829 5472 233 178134 1.11 33.01 320 1 1 320 320
36	145301 12644 836 177616 1.269557810561 32.969562344465 318 0.09999877886 0.100011858434 31.800003314444 3.1800006674807
35	157945 12644 836 177616 1.269557810561 32.969562344465 318 0.09999877886 0.100011858434 31.800003314444 3.1800006674807
34	170589 8585 836 177616 1.269557810561 32.969562344465 318 1 1 318 318
33	179174 8585 836 177616 1.269557810561 32.969562344465 318 1 1 318 318
32	187759 453 5057 177945 2 33 32 0 0 0 0
31	188212 862 5057 177945 2 33 32 0.022754185285 0.026262199235 0.836504035717 0.021878682914624
30	189074 453 5057 177945 2 33 32 1 1 32 32
51	189527 10301 234 178135 1.11 33.01 320 -1.5293286435047 1.5293868318557 7.4895830054172 512.18977067024
50	199828 10372 234 178135 1.11 33.01 320 -1.4784118030896 1.4535038995902 11.472089286499 336.87034004237
49	210200 6752 234 178135 1.11 33.01 320 36.55 36.55 11696 427488.8
48	216952 9929 234 178135 1.11 33.01 320 88.51262550354 1422.0063018362 241987.36084681 230671145.80836
47	226881 9907 234 178135 1.11 33.01 320 40.375322632411 43.6306157707 13377.01053343 559438.76273946
45	236788 11049 234 178135 1.11 33.01 320 -0.011889281066061 0.011086338742892 0.066370893766383 0.011330780876682
44	247837 9912 234 178135 1.11 33.01 320 4.9825737917779 5.0363329570692 1601.3156692064 8013.2188160308
46	257749 5472 234 178135 1.11 33.01 320 2 2 640 1280
58	263221 12659 1046 177820 1.299189200831 32.999193745229 318 0.099998778849 0.10001188167 31.800003324938 3.1800006695803
57	275880 12646 842 177622 1.269557840582 32.969562374547 318 0.099998778859 0.100011858438 31.800003314505 3.1800006674929
56	288526 8591 1046 177820 1.299189200831 32.999193745229 318 2 2 636 1272
55	297117 8583 842 177622 1.269557840582 32.969562374547 318 2 2 636 1272
54	305700 453 5058 177946 2 33 32 0 0 0 0
53	306153 860 5058 177946 2 33 32 0.022754215306 0.026262199165 0.836504065799 0.021878684284032
52	307013 453 5058 177946 2 33 32 2 2 64 128
73	307466 10280 235 178136 1.11 33.01 320 -1.4888887519616 1.4893728964936 8.1952380532709 476.83632551425
72	317746 10335 235 178136 1.11 33.01 320 -1.4638941767302 1.4373649688743 11.562908337833 329.7506558434
71	328081 6752 235 178136 1.11 33.01 320 36.55 36.55 11696 427488.8
70	334833 9904 235 178136 1.11 33.01 320 79.51262550354 1412.9705147856 239105.9848181 226340613.59826
69	344737 9910 235 178136 1.11 33.01 320 40.39023384252 43.617117941382 13376.655289692 559404.1789317
67	354647 10852 235 178136 1.11 33.01 320 -0.037725853650961 0.033958273763183 0.2405228449617 0.13647595229328
66	365499 9877 235 178136 1.11 33.01 320 4.9599643258495 5.0696736114792 1601.3689238272 8013.9248224109
68	375376 5472 235 178136 1.11 33.01 320 3 3 960 2880
80	380848 12662 1180 177969 1.300210350935 33.000214964342 318 0.099998778852 0.100011894306 31.800003393947 3.1800006833827
79	393510 12651 848 177628 1.269557870602 32.969562404688 318 0.099998778857 0.100011858449 31.800003314626 3.1800006675171
78	406161 8588 1180 177969 1.300210350935 33.000214964342 318 3 3 954 2862
77	414749 8594 848 177628 1.269557870602 32.969562404688 318 3 3 954 2862
76	423343 453 5059 177947 2 33 32 0 0 0 0
75	423796 859 5059 177947 2 33 32 0.022753185285 0.026262199305 0.836503035658 0.021878637404158
74	424655 453 5059 177947 2 33 32 3 3 96 288
95	425108 10301 236 178137 1.11 33.01 320 -2.9213137255988 1.483355826437 -69.702365512344 530.11827037578
94	435409 10341 236 178137 1.11 33.01 320 -2.366396077916 1.4275171539374 -59.733998942448 372.6539665954
93	445750 6752 236 178137 1.11 33.01 320 36.55 36.55 11696 427488.8
92	452502 9908 236 178137 1.11 33.01 320 70.51262550354 1393.5389657129 236121.41391239 221778241.20981
91	462410 9918 236 178137 1.11 33.01 320 35.79290712194 43.603845063763 13269.855141278 550904.54537232
89	472328 10950 236 178137 1.11 33.01 320 -0.012164311701831 7.0650392275078 106.68451933125 531.89014216076
88	483278 9881 236 178137 1.11 33.01 320 4.9850564146382 15.290370816447 1702.4349027425 9675.526160749
90	493159 5472 236 178137 1.11 33.01 320 4 4 1280 5120
102	498631 12988 1312 178107 1.306028501039 33.006020185262 318 0.099907778972 0.100089782295 31.799925464763 3.1799856402171
101	511619 12969 854 177634 1.269557900623 32.969562468331 318 0.099998778855 0.100011860486 31.800003348248 3.1800006742415
100	524588 8917 1312 178107 1.306028501039 33.006020185262 318 4 4 1272 5088
99	533505 8595 854 177634 1.269557900623 32.969562468331 318 4 4 1272 5088
98	542100 453 5060 177948 2 33 32 0 0 0 0
97	542553 863 5060 177948 2 33 32 0.022754155264 0.026262199361 0.836503971313 0.021878679743408
96	543416 453 5060 177948 2 33 32 4 4 128 512
139	543869 10611 238 178139 1.11 33.01 320 -2.4966785114259 1.4846826954146 -20.971683964505 458.60765182653
138	554480 10664 238 178139 1.11 33.01 320 -1.6649558429435 1.4280810613457 -13.177934360305 305.93250867816
137	565144 7072 238 178139 1.11 33.01 320 36.55 36.55 11696 427488.8
136	572216 10247 238 178139 1.11 33.01 320 52.512623596191 1382.9786382509 230435.11240275 213584180.19586
135	582463 10235 238 178139 1.11 33.01 320 40.36705243155 43.600367745746 13345.87757395 556842.02049872
133	592698 11103 238 178139 1.11 33.01 320 -1.7031978371923 0.046328181019653 -25.351299458117 31.804810419243
132	603801 10233 238 178139 1.11 33.01 320 2.5293656001825 5.0375578473123 1577.8269721916 7814.8672858058
134	614034 5792 238 178139 1.11 33.01 320 6 6 1920 11520
146	619826 12965 1249 178038 1.305615440997 33.005607064164 318 0.099998778836 0.100011830936 31.799990403707 3.1799980851948
145	632791 12975 866 177646 1.269557960665 32.969562504327 318 0.099998778853 0.100011859087 31.800003324202 3.1800006694323
144	645766 8906 1249 178038 1.305615440997 33.005607064164 318 6 6 1908 11448
143	654672 8911 866 177646 1.269557960665 32.969562504327 318 6 6 1908 11448
142	663583 485 5062 177950 2 33 32 0 0 0 0
141	664068 894 5062 177950 2 33 32 0.022754095223 0.026262199288 0.836503935778 0.021878678297544
140	664962 485 5062 177950 2 33 32 6 6 192 1152
161	665447 10629 239 178140 1.11 33.01 320 -2.2449956241339 1.5049027513383 -10.161913056579 481.44526004297
160	676076 10691 239 178140 1.11 33.01 320 -1.4497273688576 1.4254867387947 -2.4041124394174 308.38831072426
159	686767 7072 239 178140 1.11 33.01 320 36.55 36.55 11696 427488.8
158	693839 10245 239 178140 1.11 33.01 320 43.512624549866 1375.4239804016 227567.73006476 209498000.11528
157	704084 10235 239 178140 1.11 33.01 320 40.401794402898 43.597038764241 13360.706361963 558060.95734518
155	714319 11360 239 178140 1.11 33.01 320 -1.0472091336976 0.0045407870941006 -14.697008669076 10.559006529814
154	725679 10243 239 178140 1.11 33.01 320 3.5759350231635 5.0189441690578 1587.6789137491 7888.7147728722
156	735922 5792 239 178140 1.11 33.01 320 7 7 2240 15680
168	741714 12974 980 177760 1.292107050727 32.992098580316 318 0.099998778853 0.100011826349 31.799990310129 3.1799980664792
167	754688 12970 872 177652 1.269557990685 32.969562529704 318 0.099998778853 0.100011858795 31.800003319559 3.1800006685037
166	767658 8909 980 177760 1.292107050727 32.992098580316 318 7 7 2226 15582
165	776567 8903 872 177652 1.269557990685 32.969562529704 318 7 7 2226 15582
164	785470 485 5063 177951 2 33 32 0 0 0 0
163	785955 893 5063 177951 2 33 32 0.022754065202 0.026262199331 0.836503910508 0.021878677180759
162	786848 485 5063 177951 2 33 32 7 7 224 1568
110	787333 10227 237 178147 1.11 33.04 321 0 5.0187625292681 1549.9949861029 7659.2642428969
111	797560 11186 237 178147 1.11 33.04 321 -2.8930966494801 0.019160263687247 -52.660847696602 117.25598057441
112	808746 5811 237 178147 1.11 33.04 321 5 5 1605 8025
113	814557 10271 237 178147 1.11 33.04 321 38.635659118979 43.594400297612 13358.855891433 556272.36466576
114	824828 10272 237 178147 1.11 33.04 321 61.51262550354 1390.6326013046 234683.05882942 219628830.163
115	835100 7095 237 178147 1.11 33.04 321 36.55 36.55 11732.55 428824.7025
116	842195 10734 237 178147 1.11 33.04 321 -2.1118888136741 1.4221569136687 -32.716106601382 314.57217025371
117	852929 10690 237 178147 1.11 33.04 321 -2.8531193284919 1.5049213281094 -45.520721496189 494.92097105313
118	863619 485 5061 177949 2 33 32 5 5 160 800
119	864104 890 5061 177949 2 33 32 0.022753125244 0.026262199367 0.836502957558 0.021878633723868
120	864994 485 5061 177949 2 33 32 0 0 0 0
121	865479 8917 860 177640 1.269557930644 32.969562482376 318 5 5 1590 7950
122	874396 8902 1112 177886 1.299602290893 32.99959385347 318 5 5 1590 7950
123	883298 12977 860 177640 1.269557930644 32.969562482376 318 0.099998778852 0.10001185959 31.800003332272 3.1800006710463
124	896275 12969 1112 177886 1.299602290893 32.99959385347 318 0.099998778842 0.100011833865 31.799990343117 3.179998073077
