file 951742 1512142640                                          
version 2
run SinusoidalSpeedInjectionAttack-248-20171201-16:37:02-28148
attr CACCSpacing 20
attr attackAcc -30
attr attackPos 7
attr attackSpeed 150
attr attackStart 30
attr attacker 3
attr beaconInterval 0.1
attr configname SinusoidalSpeedInjectionAttack
attr controller 1
attr datetime 20171201-16:37:02
attr experiment SinusoidalSpeedInjectionAttack
attr fakeAcc "(3 == 4)"
attr fakePos "(3 == 2)"
attr fakeSpeed "(3 == 3)"
attr inifile omnetpp_248.ini
attr iterationvars "$attacker=3, $attackSpeed=150, $attackPos=7, $attackAcc=-30, $leaderSpeed=50, $controller=1, $CACCSpacing=20, $sController=\"CACC\", $attackStart=30, $0=20, $1=0, $nCars=8, $platoonSize=8, $nLanes=1, $beaconInterval=0.1, $priority=2, $packetSize=200, $ploegH=0.5, $leaderHeadway=1.2, $fakeSpeed=(3 == 3), $fakeAcc=(3 == 4), $fakePos=(3 == 2)"
attr iterationvarsf attacker=3,attackSpeed=150,attackPos=7,attackAcc=-30,leaderSpeed=50,controller=1,CACCSpacing=20,sController=CACC,attackStart=30,20,0,nCars=8,platoonSize=8,nLanes=1,beaconInterval=0.1,priority=2,packetSize=200,ploegH=0.5,leaderHeadway=1.2,fakeSpeed=(3_==_3),fakeAcc=(3_==_4),fakePos=(3_==_2)-
attr leaderHeadway 1.2
attr leaderSpeed 50
attr measurement "$attacker=3, $attackSpeed=150, $attackPos=7, $attackAcc=-30, $leaderSpeed=50, $controller=1, $CACCSpacing=20, $sController=\"CACC\", $attackStart=30, $0=20, $1=0, $nCars=8, $platoonSize=8, $nLanes=1, $beaconInterval=0.1, $priority=2, $packetSize=200, $ploegH=0.5, $leaderHeadway=1.2, $fakeSpeed=(3 == 3), $fakeAcc=(3 == 4), $fakePos=(3 == 2)"
attr nCars 8
attr nLanes 1
attr network scenario
attr packetSize 200
attr platoonSize 8
attr ploegH 0.5
attr priority 2
attr processid 28148
attr repetition 3
attr replication #3
attr resultdir results
attr runnumber 248
attr sController "\"CACC\""
attr seedset 3
param **.coreDebug false
param **.debug false
param **.headway 0.1s
param **.numberOfCars 8
param **.numberOfCarsPerPlatoon 8
param **.numberOfLanes 1
param **.numericController 1
param **.traffic.nCars 8
param **.traffic.nLanes 1
param **.traffic.platoonInsertDistance 20m
param **.traffic.platoonInsertHeadway 0s
param **.traffic.platoonInsertSpeed 50kmph
param **.traffic.platoonInsertTime "1 s"
param **.traffic.platoonLeaderHeadway 1.2s
param **.traffic.platoonSize 8
param **.traffic.platooningVType "\"vtypeauto\""
param **.traffic_type "\"PlatoonsTrafficManager\""
param *.**.nic.mac1609_4.bitrate 6Mbps
param *.**.nic.mac1609_4.txPower 100mW
param *.**.nic.mac1609_4.useServiceChannel false
param *.**.nic.phy80211p.analogueModels "xmldoc(\"config.xml\")"
param *.**.nic.phy80211p.decider "xmldoc(\"config.xml\")"
param *.**.nic.phy80211p.maxTXPower 100mW
param *.**.nic.phy80211p.sensitivity -94dBm
param *.**.nic.phy80211p.thermalNoise -95dBm
param *.**.nic.phy80211p.usePropagationDelay true
param *.**.nic.phy80211p.useThermalNoise true
param *.annotations.draw false
param *.connectionManager.alpha 2.0
param *.connectionManager.carrierFrequency "5.890e9 Hz"
param *.connectionManager.pMax 100mW
param *.connectionManager.sat -94dBm
param *.connectionManager.sendDirect true
param *.manager.autoShutdown true
param *.manager.commandLine "\"sumo --remote-port $port --seed $seed --configuration-file $configFile\""
param *.manager.configFile "\"./sumocfg/freeway.sumo.cfg\""
param *.manager.host "\"localhost\""
param *.manager.margin 25
param *.manager.moduleDisplayString "\"\""
param *.manager.moduleName "\"node\""
param *.manager.moduleType "\"Car\""
param *.manager.updateInterval 0.01s
param *.node[*].appl.attackStart 30s
param *.node[*].appl.attackerType 3
param *.node[*].appl.simulationDuration "60 s"
param *.node[*].appl_type "\"SimplePlatooningApp\""
param *.node[*].helper.nCars 8
param *.node[*].helper.nLanes 1
param *.node[*].helper.platoonSize 8
param *.node[*].helper_type "\"PositionHelper\""
param *.node[*].mobility.x 0
param *.node[*].mobility.y 0
param *.node[*].mobility.z 1.895
param *.node[*].prot.attackStart 30s
param *.node[*].prot.attackerType 3
param *.node[*].prot.attackingNode 3
param *.node[*].prot.beaconingInterval 0.1s
param *.node[*].prot.fakeAcc "(3 == 4)"
param *.node[*].prot.fakePos "(3 == 2)"
param *.node[*].prot.fakeSpeed "(3 == 3)"
param *.node[*].prot.maliciousAcc "-30 mpss"
param *.node[*].prot.maliciousSpeed 150kmph
param *.node[*].prot.packetSize 200
param *.node[*].prot.priority 2
param *.node[*].prot.shiftX "7 m"
param *.node[*].prot.useControllerAcceleration true
param *.node[*].protocol_type "\"SimplePlatooningBeaconing\""
param *.node[*].scenario.accHeadway 0.1s
param *.node[*].scenario.caccC1 0.5
param *.node[*].scenario.caccOmegaN "0.2 Hz"
param *.node[*].scenario.caccSpacing 20m
param *.node[*].scenario.caccXi 1
param *.node[*].scenario.controller "\"CACC\""
param *.node[*].scenario.engineTau "0.5 s"
param *.node[*].scenario.leaderHeadway 1.2s
param *.node[*].scenario.leaderSpeed 50kmph
param *.node[*].scenario.ploegH 0.5s
param *.node[*].scenario.ploegKd 0.7
param *.node[*].scenario.ploegKp 0.2
param *.node[*].scenario.useRealisticEngine false
param *.node[*].scenario_type "\"SinusoidalScenario\""
param *.node[*].unicast.packetLossRate 0
param *.obstacles.debug false
param *.playgroundSizeX 65000m
param *.playgroundSizeY 25000m
param *.playgroundSizeZ 50m
param *.world.use2D false
param *.world.useTorus false

vector 0  scenario.node[0].appl  distance  ETV
vector 1  scenario.node[0].appl  relativeSpeed  ETV
vector 2  scenario.node[0].appl  nodeId  ETV
vector 6  scenario.node[0].appl  acceleration  ETV
vector 7  scenario.node[0].appl  controllerAcceleration  ETV
vector 3  scenario.node[0].appl  speed  ETV
vector 4  scenario.node[0].appl  posx  ETV
vector 5  scenario.node[0].appl  posy  ETV
vector 22  scenario.node[1].appl  distance  ETV
vector 23  scenario.node[1].appl  relativeSpeed  ETV
vector 24  scenario.node[1].appl  nodeId  ETV
vector 28  scenario.node[1].appl  acceleration  ETV
vector 29  scenario.node[1].appl  controllerAcceleration  ETV
vector 25  scenario.node[1].appl  speed  ETV
vector 26  scenario.node[1].appl  posx  ETV
vector 27  scenario.node[1].appl  posy  ETV
vector 44  scenario.node[2].appl  distance  ETV
vector 45  scenario.node[2].appl  relativeSpeed  ETV
vector 46  scenario.node[2].appl  nodeId  ETV
vector 50  scenario.node[2].appl  acceleration  ETV
vector 51  scenario.node[2].appl  controllerAcceleration  ETV
vector 47  scenario.node[2].appl  speed  ETV
vector 48  scenario.node[2].appl  posx  ETV
vector 49  scenario.node[2].appl  posy  ETV
vector 66  scenario.node[3].appl  distance  ETV
vector 67  scenario.node[3].appl  relativeSpeed  ETV
vector 68  scenario.node[3].appl  nodeId  ETV
vector 72  scenario.node[3].appl  acceleration  ETV
vector 73  scenario.node[3].appl  controllerAcceleration  ETV
vector 69  scenario.node[3].appl  speed  ETV
vector 70  scenario.node[3].appl  posx  ETV
vector 71  scenario.node[3].appl  posy  ETV
vector 88  scenario.node[4].appl  distance  ETV
vector 89  scenario.node[4].appl  relativeSpeed  ETV
vector 90  scenario.node[4].appl  nodeId  ETV
vector 94  scenario.node[4].appl  acceleration  ETV
vector 95  scenario.node[4].appl  controllerAcceleration  ETV
vector 91  scenario.node[4].appl  speed  ETV
vector 92  scenario.node[4].appl  posx  ETV
vector 93  scenario.node[4].appl  posy  ETV
vector 110  scenario.node[5].appl  distance  ETV
vector 111  scenario.node[5].appl  relativeSpeed  ETV
vector 112  scenario.node[5].appl  nodeId  ETV
vector 116  scenario.node[5].appl  acceleration  ETV
vector 117  scenario.node[5].appl  controllerAcceleration  ETV
vector 113  scenario.node[5].appl  speed  ETV
vector 114  scenario.node[5].appl  posx  ETV
vector 115  scenario.node[5].appl  posy  ETV
vector 132  scenario.node[6].appl  distance  ETV
vector 133  scenario.node[6].appl  relativeSpeed  ETV
vector 134  scenario.node[6].appl  nodeId  ETV
vector 138  scenario.node[6].appl  acceleration  ETV
vector 139  scenario.node[6].appl  controllerAcceleration  ETV
vector 135  scenario.node[6].appl  speed  ETV
vector 136  scenario.node[6].appl  posx  ETV
vector 137  scenario.node[6].appl  posy  ETV
vector 154  scenario.node[7].appl  distance  ETV
vector 155  scenario.node[7].appl  relativeSpeed  ETV
vector 156  scenario.node[7].appl  nodeId  ETV
vector 160  scenario.node[7].appl  acceleration  ETV
vector 161  scenario.node[7].appl  controllerAcceleration  ETV
vector 157  scenario.node[7].appl  speed  ETV
vector 158  scenario.node[7].appl  posx  ETV
vector 159  scenario.node[7].appl  posy  ETV
vector 35  scenario.node[1].prot  leaderDelay  ETV
vector 33  scenario.node[1].prot  leaderDelayId  ETV
vector 36  scenario.node[1].prot  frontDelay  ETV
vector 34  scenario.node[1].prot  frontDelayId  ETV
vector 57  scenario.node[2].prot  leaderDelay  ETV
vector 55  scenario.node[2].prot  leaderDelayId  ETV
vector 79  scenario.node[3].prot  leaderDelay  ETV
vector 77  scenario.node[3].prot  leaderDelayId  ETV
vector 101  scenario.node[4].prot  leaderDelay  ETV
vector 99  scenario.node[4].prot  leaderDelayId  ETV
vector 123  scenario.node[5].prot  leaderDelay  ETV
vector 121  scenario.node[5].prot  leaderDelayId  ETV
vector 145  scenario.node[6].prot  leaderDelay  ETV
vector 143  scenario.node[6].prot  leaderDelayId  ETV
vector 167  scenario.node[7].prot  leaderDelay  ETV
vector 165  scenario.node[7].prot  leaderDelayId  ETV
vector 168  scenario.node[7].prot  frontDelay  ETV
vector 166  scenario.node[7].prot  frontDelayId  ETV
vector 58  scenario.node[2].prot  frontDelay  ETV
vector 56  scenario.node[2].prot  frontDelayId  ETV
vector 124  scenario.node[5].prot  frontDelay  ETV
vector 122  scenario.node[5].prot  frontDelayId  ETV
vector 80  scenario.node[3].prot  frontDelay  ETV
vector 78  scenario.node[3].prot  frontDelayId  ETV
vector 146  scenario.node[6].prot  frontDelay  ETV
vector 144  scenario.node[6].prot  frontDelayId  ETV
vector 102  scenario.node[4].prot  frontDelay  ETV
vector 100  scenario.node[4].prot  frontDelayId  ETV
vector 8  scenario.node[0].prot  nodeId  ETV
vector 9  scenario.node[0].prot  busyTime  ETV
vector 10  scenario.node[0].prot  collisions  ETV
vector 30  scenario.node[1].prot  nodeId  ETV
vector 31  scenario.node[1].prot  busyTime  ETV
vector 32  scenario.node[1].prot  collisions  ETV
vector 52  scenario.node[2].prot  nodeId  ETV
vector 53  scenario.node[2].prot  busyTime  ETV
vector 54  scenario.node[2].prot  collisions  ETV
vector 74  scenario.node[3].prot  nodeId  ETV
vector 75  scenario.node[3].prot  busyTime  ETV
vector 76  scenario.node[3].prot  collisions  ETV
vector 96  scenario.node[4].prot  nodeId  ETV
vector 97  scenario.node[4].prot  busyTime  ETV
vector 98  scenario.node[4].prot  collisions  ETV
vector 118  scenario.node[5].prot  nodeId  ETV
vector 119  scenario.node[5].prot  busyTime  ETV
vector 120  scenario.node[5].prot  collisions  ETV
vector 140  scenario.node[6].prot  nodeId  ETV
vector 141  scenario.node[6].prot  busyTime  ETV
vector 142  scenario.node[6].prot  collisions  ETV
vector 162  scenario.node[7].prot  nodeId  ETV
vector 163  scenario.node[7].prot  busyTime  ETV
vector 164  scenario.node[7].prot  collisions  ETV
7	11091 7993 232 187053 1.11 34.61 336 -1.5 1.5 -15.781542154479 536.79312957775
6	19084 10539 232 187053 1.11 34.61 336 -1.472274679513 1.4513407705126 -9.8824919942418 363.90908391426
5	29623 6768 232 187053 1.11 34.61 336 36.55 36.55 12280.8 448863.24
4	36391 10094 232 187053 1.11 34.61 336 208.73485145556 678.66138264566 149379.73076433 72611660.1215
3	46485 10090 232 187053 1.11 34.61 336 12.59914837223 15.853603639796 4712.8175116843 66346.715821518
1	56575 5424 232 187053 1.11 34.61 336 0 0 0 0
0	61999 5760 232 187053 1.11 34.61 336 -1 -1 -336 336
2	67759 5424 232 187053 1.11 34.61 336 0 0 0 0
10	73183 468 5056 183522 2 34 33 0 0 0 0
9	73651 858 5056 183522 2 34 33 0.022755747372 0.026262189362 0.86275701096 0.022567890692485
8	74509 435 5056 183522 2 34 33 0 0 0 0
29	74944 9896 233 187054 1.11 34.61 336 -1.5201885302002 1.5215379200046 -16.296085906098 538.73362341515
28	84840 10868 233 187054 1.11 34.61 336 -1.4845166970579 1.4492363478547 -9.0841109713839 363.48128603848
27	95708 7104 233 187054 1.11 34.61 336 36.55 36.55 12280.8 448863.24
26	102812 10419 233 187054 1.11 34.61 336 184.73485145569 654.59862668048 141293.27210479 65612757.213164
25	113231 10419 233 187054 1.11 34.61 336 12.593700960239 15.849344566939 4712.2200317411 66330.109907813
23	123650 11386 233 187054 1.11 34.61 336 -0.083288757167692 0.092346609178076 0.69630486310222 1.3013384672073
22	135036 10427 233 187054 1.11 34.61 336 19.942679243784 20.212890322068 6742.4467099493 135300.95478738
24	145463 5760 233 187054 1.11 34.61 336 1 1 336 336
36	151223 13311 836 186544 1.269559161495 34.569558183742 334 0.099987080745 0.100000084633 33.399999103687 3.3399998210733
35	164534 13311 836 186544 1.269559161495 34.569558183742 334 0.099987080745 0.100000084633 33.399999103687 3.3399998210733
34	177845 9035 836 186544 1.269559161495 34.569558183742 334 1 1 334 334
33	186880 9035 836 186544 1.269559161495 34.569558183742 334 1 1 334 334
32	195915 468 5057 183523 2 34 33 0 0 0 0
31	196383 887 5057 183523 2 34 33 0.022755827428 0.026262189695 0.862757091424 0.02256789435739
30	197270 468 5057 183523 2 34 33 1 1 33 33
51	197738 9729 234 187055 1.11 34.61 336 -1.5268714784558 1.5218527228221 -16.71432724904 539.24856103889
50	207467 10892 234 187055 1.11 34.61 336 -1.4757144513274 1.4406976851483 -8.8405250370618 359.89308056531
49	218359 7104 234 187055 1.11 34.61 336 36.55 36.55 12280.8 448863.24
48	225463 10432 234 187055 1.11 34.61 336 160.73485145569 630.55278679824 133219.63280586 59015016.009218
47	235895 10436 234 187055 1.11 34.61 336 12.597678484568 15.842356038036 4711.7691899745 66315.059201501
45	246331 11627 234 187055 1.11 34.61 336 -0.0098541925988691 0.013218813465835 0.54168287633464 0.011635591919366
44	257958 10422 234 187055 1.11 34.61 336 19.996915775477 20.069185438974 6729.6302820914 134785.63501578
46	268380 5760 234 187055 1.11 34.61 336 2 2 672 1344
58	274140 13313 1046 186748 1.299191202215 34.599190214278 334 0.099987083066 0.100000084645 33.399999093503 3.3399998190363
57	287453 13302 842 186550 1.269559241551 34.569558263954 334 0.099987080748 0.100000084634 33.399999103843 3.3399998211045
56	300755 9039 1046 186748 1.299191202215 34.599190214278 334 2 2 668 1336
55	309794 9034 842 186550 1.269559241551 34.569558263954 334 2 2 668 1336
54	318828 468 5058 183524 2 34 33 0 0 0 0
53	319296 888 5058 183524 2 34 33 0.022755907483 0.026262189765 0.862757171673 0.022567898011019
52	320184 468 5058 183524 2 34 33 2 2 66 132
73	320652 10767 235 187056 1.11 34.61 336 -1.4873962144285 1.4906490646925 -14.851650575633 508.54254648747
72	331419 10834 235 187056 1.11 34.61 336 -1.4629037269492 1.4323718931363 -8.4067765216208 354.03284068623
71	342253 7104 235 187056 1.11 34.61 336 36.55 36.55 12280.8 448863.24
70	349357 10432 235 187056 1.11 34.61 336 136.73484382629 606.59262942663 125159.88163064 52818408.112749
69	359789 10420 235 187056 1.11 34.61 336 12.60836832085 15.833515838699 4712.1824223053 66323.062363614
67	370209 11397 235 187056 1.11 34.61 336 -0.037916124754219 0.029305428868369 -0.32482708042574 0.12935054691095
66	381606 10428 235 187056 1.11 34.61 336 19.934505825322 20.063152523115 6715.7594398632 134230.72903651
68	392034 5760 235 187056 1.11 34.61 336 3 3 1008 3024
80	397794 13309 1180 186883 1.300212602492 34.600211485063 334 0.099987080261 0.100000084647 33.399998964011 3.3399997931381
79	411103 13318 848 186556 1.269559321606 34.569558343884 334 0.099987080752 0.100000084634 33.399999103718 3.3399998210795
78	424421 9044 1180 186883 1.300212602492 34.600211485063 334 3 3 1002 3006
77	433465 9043 848 186556 1.269559321606 34.569558343884 334 3 3 1002 3006
76	442508 468 5059 183525 2 34 33 0 0 0 0
75	442976 891 5059 183525 2 34 33 0.022754827428 0.026262189643 0.862756091667 0.022567848859491
74	443867 468 5059 183525 2 34 33 3 3 99 297
117	444335 10647 237 187058 1.11 34.61 336 -1.5013449381945 5.4675312942956 55.5831546255 558.30886990205
116	454982 11180 237 187058 1.11 34.61 336 -1.4475786586491 1.4994619740907 48.697507348807 376.71469888526
115	466162 7440 237 187058 1.11 34.61 336 36.55 36.55 12280.8 448863.24
114	473602 10772 237 187058 1.11 34.61 336 88.734847640991 565.30091762472 109104.57031889 41656763.557012
113	484374 10769 237 187058 1.11 34.61 336 12.624748557684 18.710312651305 4781.2466357252 68483.370250163
111	495143 11608 237 187058 1.11 34.61 336 -0.017645302563839 5.1839387479096 129.41710333266 458.48629942836
110	506751 10771 237 187058 1.11 34.61 336 19.98157339897 32.755447359122 6930.7694298454 144502.64875936
112	517522 6096 237 187058 1.11 34.61 336 5 5 1680 8400
124	523618 13625 1112 186826 1.299591442381 34.599603432311 334 0.099987045147 0.100012929728 33.40001207137 3.340002414778
123	537243 13641 860 186568 1.269559481717 34.569558482547 334 0.099987080751 0.100000084639 33.39999908227 3.3399998167899
122	550884 9368 1112 186826 1.299591442381 34.599603432311 334 5 5 1670 8350
121	560252 9364 860 186568 1.269559481717 34.569558482547 334 5 5 1670 8350
120	569616 501 5061 183527 2 34 33 0 0 0 0
119	570117 921 5061 183527 2 34 33 0.022754667317 0.026262189611 0.862755944034 0.02256784222801
118	571038 501 5061 183527 2 34 33 5 5 165 825
139	571539 10912 238 187059 1.11 34.61 336 -1.4835635200997 1.5 24.762949312536 468.66266555194
138	582451 11179 238 187059 1.11 34.61 336 -1.4515357100553 1.4511127438295 23.42288460026 333.33089238687
137	593630 7440 238 187059 1.11 34.61 336 36.55 36.55 12280.8 448863.24
136	601070 10768 238 187059 1.11 34.61 336 64.734847640991 537.73560503314 100997.40665278 36567925.774543
135	611838 10765 238 187059 1.11 34.61 336 12.615237321183 16.216190208009 4744.7141261076 67292.134157057
133	622603 11621 238 187059 1.11 34.61 336 -0.042667071705576 2.4821820713181 36.045534544052 53.202690656912
132	634224 10744 238 187059 1.11 34.61 336 19.964643168932 23.515430142724 6762.4330159166 136180.15790719
134	644968 6096 238 187059 1.11 34.61 336 6 6 2016 12096
146	651064 13644 1249 186952 1.305604842658 34.605616715036 334 0.099987081777 0.100000084654 33.400011953818 3.3400023909326
145	664708 13637 866 186574 1.269559561772 34.569558574081 334 0.099987080748 0.100000084639 33.399999093749 3.3399998190857
144	678345 9381 1249 186952 1.305604842658 34.605616715036 334 6 6 2004 12024
143	687726 9362 866 186574 1.269559561772 34.569558574081 334 6 6 2004 12024
142	697088 501 5062 183528 2 34 33 0 0 0 0
141	697589 922 5062 183528 2 34 33 0.022755587261 0.026262189691 0.862756856652 0.022567883710286
140	698511 501 5062 183528 2 34 33 6 6 198 1188
161	699012 10981 239 187060 1.11 34.61 336 -1.5023459446595 1.5178913481629 7.9910120865098 487.17372845237
160	709993 11231 239 187060 1.11 34.61 336 -1.4499546962604 1.4406058643397 8.8066590622404 327.2228398992
159	721224 7440 239 187060 1.11 34.61 336 36.55 36.55 12280.8 448863.24
158	728664 10763 239 187060 1.11 34.61 336 40.734846687317 512.19468181024 92921.445058644 31901632.995059
157	739427 10770 239 187060 1.11 34.61 336 12.618544361916 15.818631577967 4728.7974499912 66799.284943235
155	750197 11957 239 187060 1.11 34.61 336 -0.0047267570942875 1.4308370952753 15.682447270469 14.775474391375
154	762154 10759 239 187060 1.11 34.61 336 19.977559543219 21.5122294783 6731.6432606175 134876.7924074
156	772913 6096 239 187060 1.11 34.61 336 7 7 2352 16464
168	779009 13633 980 186682 1.292108801938 34.592107829143 334 0.09998708144 0.100000084639 33.399999108645 3.3399998220648
167	792642 13647 872 186580 1.269559641828 34.569558659038 334 0.09998708075 0.100000084639 33.39999909865 3.3399998200659
166	806289 9372 980 186682 1.292108801938 34.592107829143 334 7 7 2338 16366
165	815661 9381 872 186580 1.269559641828 34.569558659038 334 7 7 2338 16366
164	825042 501 5063 183529 2 34 33 0 0 0 0
163	825543 921 5063 183529 2 34 33 0.022755507206 0.026262189656 0.862756773996 0.022567879930342
162	826464 501 5063 183529 2 34 33 7 7 231 1617
88	826965 10409 236 187069 1.11 34.65 337 0 20.02975727383 6437.9231661724 126265.74041002
89	837374 11532 236 187069 1.11 34.65 337 -10.985759937965 0.010595951013368 -210.39577449591 1394.9706506886
90	848906 5778 236 187069 1.11 34.65 337 4 4 1348 5392
91	854684 10463 236 187069 1.11 34.65 337 12.618608187165 24.015792968183 4935.6922975966 73809.811312999
92	865147 10462 236 187069 1.11 34.65 337 112.73484382629 603.12067337787 117985.06901949 47695702.405231
93	875609 7126 236 187069 1.11 34.65 337 36.55 36.55 12317.35 450199.1425
94	882735 10687 236 187069 1.11 34.65 337 -1.4535830275014 2.5 103.7125825081 581.4042026387
95	893422 10793 236 187069 1.11 34.65 337 -1.4832319688266 9.8951351853714 279.60835691513 2634.3863296287
96	904215 468 5060 183526 2 34 33 4 4 132 528
97	904683 889 5060 183526 2 34 33 0.022755747372 0.026262189601 0.862757056898 0.022567893104213
98	905572 468 5060 183526 2 34 33 0 0 0 0
99	906040 9040 854 186562 1.269559401662 34.569558360463 334 4 4 1336 5344
100	915080 9374 1312 187015 1.306018002769 34.606107776236 334 4 4 1336 5344
101	924454 13647 854 186562 1.269559401662 34.569558360463 334 0.099987080753 0.100000084636 33.399999040241 3.3399998083841
102	938101 13641 1312 187015 1.306018002769 34.606107776236 334 0.099909034667 0.10009108144 33.400024854907 3.3400055516478
