version 2
run SinusoidalSpeedInjectionAttack-222-20170802-19:44:58-85630
attr CACCSpacing 5
attr attackAcc -30
attr attackPos 7
attr attackSpeed 100
attr attackStart 30
attr attacker 3
attr beaconInterval 0.1
attr configname SinusoidalSpeedInjectionAttack
attr controller 1
attr datetime 20170802-19:44:58
attr experiment SinusoidalSpeedInjectionAttack
attr fakeAcc "(3 == 4)"
attr fakePos "(3 == 2)"
attr fakeSpeed "(3 == 3)"
attr inifile omnetpp_222.ini
attr iterationvars "$attacker=3, $attackSpeed=100, $attackPos=7, $attackAcc=-30, $leaderSpeed=150, $controller=1, $CACCSpacing=5, $sController=\"CACC\", $attackStart=30, $0=5, $1=0, $nCars=8, $platoonSize=8, $nLanes=1, $beaconInterval=0.1, $priority=2, $packetSize=200, $ploegH=0.5, $leaderHeadway=1.2, $fakeSpeed=(3 == 3), $fakeAcc=(3 == 4), $fakePos=(3 == 2)"
attr iterationvarsf attacker=3,attackSpeed=100,attackPos=7,attackAcc=-30,leaderSpeed=150,controller=1,CACCSpacing=5,sController=CACC,attackStart=30,5,0,nCars=8,platoonSize=8,nLanes=1,beaconInterval=0.1,priority=2,packetSize=200,ploegH=0.5,leaderHeadway=1.2,fakeSpeed=(3_==_3),fakeAcc=(3_==_4),fakePos=(3_==_2)-
attr leaderHeadway 1.2
attr leaderSpeed 150
attr measurement "$attacker=3, $attackSpeed=100, $attackPos=7, $attackAcc=-30, $leaderSpeed=150, $controller=1, $CACCSpacing=5, $sController=\"CACC\", $attackStart=30, $0=5, $1=0, $nCars=8, $platoonSize=8, $nLanes=1, $beaconInterval=0.1, $priority=2, $packetSize=200, $ploegH=0.5, $leaderHeadway=1.2, $fakeSpeed=(3 == 3), $fakeAcc=(3 == 4), $fakePos=(3 == 2)"
attr nCars 8
attr nLanes 1
attr network scenario
attr packetSize 200
attr platoonSize 8
attr ploegH 0.5
attr priority 2
attr processid 85630
attr repetition 2
attr replication #2
attr resultdir results
attr runnumber 222
attr sController "\"CACC\""
attr seedset 2
param **.coreDebug false
param **.debug false
param **.headway 0.1s
param **.numberOfCars 8
param **.numberOfCarsPerPlatoon 8
param **.numberOfLanes 1
param **.numericController 1
param **.traffic.nCars 8
param **.traffic.nLanes 1
param **.traffic.platoonInsertDistance 5m
param **.traffic.platoonInsertHeadway 0s
param **.traffic.platoonInsertSpeed 150kmph
param **.traffic.platoonInsertTime "1 s"
param **.traffic.platoonLeaderHeadway 1.2s
param **.traffic.platoonSize 8
param **.traffic.platooningVType "\"vtypeauto\""
param **.traffic_type "\"PlatoonsTrafficManager\""
param *.**.nic.mac1609_4.bitrate 6Mbps
param *.**.nic.mac1609_4.txPower 100mW
param *.**.nic.mac1609_4.useServiceChannel false
param *.**.nic.phy80211p.analogueModels "xmldoc(\"config.xml\")"
param *.**.nic.phy80211p.decider "xmldoc(\"config.xml\")"
param *.**.nic.phy80211p.maxTXPower 100mW
param *.**.nic.phy80211p.sensitivity -94dBm
param *.**.nic.phy80211p.thermalNoise -95dBm
param *.**.nic.phy80211p.usePropagationDelay true
param *.**.nic.phy80211p.useThermalNoise true
param *.annotations.draw false
param *.connectionManager.alpha 2.0
param *.connectionManager.carrierFrequency "5.890e9 Hz"
param *.connectionManager.pMax 100mW
param *.connectionManager.sat -94dBm
param *.connectionManager.sendDirect true
param *.manager.autoShutdown true
param *.manager.commandLine "\"sumo --remote-port $port --seed $seed --configuration-file $configFile\""
param *.manager.configFile "\"./sumocfg/freeway.sumo.cfg\""
param *.manager.host "\"localhost\""
param *.manager.margin 25
param *.manager.moduleDisplayString "\"\""
param *.manager.moduleName "\"node\""
param *.manager.moduleType "\"Car\""
param *.manager.updateInterval 0.01s
param *.node[*].appl.attackStart 30s
param *.node[*].appl.attackerType 3
param *.node[*].appl.simulationDuration "60 s"
param *.node[*].appl_type "\"SimplePlatooningApp\""
param *.node[*].helper.nCars 8
param *.node[*].helper.nLanes 1
param *.node[*].helper.platoonSize 8
param *.node[*].helper_type "\"PositionHelper\""
param *.node[*].mobility.x 0
param *.node[*].mobility.y 0
param *.node[*].mobility.z 1.895
param *.node[*].prot.attackStart 30s
param *.node[*].prot.attackerType 3
param *.node[*].prot.attackingNode 3
param *.node[*].prot.beaconingInterval 0.1s
param *.node[*].prot.fakeAcc "(3 == 4)"
param *.node[*].prot.fakePos "(3 == 2)"
param *.node[*].prot.fakeSpeed "(3 == 3)"
param *.node[*].prot.maliciousAcc "-30 mpss"
param *.node[*].prot.maliciousSpeed 100kmph
param *.node[*].prot.packetSize 200
param *.node[*].prot.priority 2
param *.node[*].prot.shiftX "7 m"
param *.node[*].prot.useControllerAcceleration true
param *.node[*].protocol_type "\"SimplePlatooningBeaconing\""
param *.node[*].scenario.accHeadway 0.1s
param *.node[*].scenario.caccC1 0.5
param *.node[*].scenario.caccOmegaN "0.2 Hz"
param *.node[*].scenario.caccSpacing 5m
param *.node[*].scenario.caccXi 1
param *.node[*].scenario.controller "\"CACC\""
param *.node[*].scenario.engineTau "0.5 s"
param *.node[*].scenario.leaderHeadway 1.2s
param *.node[*].scenario.leaderOscillationFrequency "0.2 Hz"
param *.node[*].scenario.leaderSpeed 150kmph
param *.node[*].scenario.oscillationAmplitude "10 kmph"
param *.node[*].scenario.ploegH 0.5s
param *.node[*].scenario.ploegKd 0.7
param *.node[*].scenario.ploegKp 0.2
param *.node[*].scenario.startOscillating "5 s"
param *.node[*].scenario.useRealisticEngine false
param *.node[*].scenario_type "\"SinusoidalScenario\""
param *.node[*].unicast.packetLossRate 0
param *.obstacles.debug false
param *.playgroundSizeX 65000m
param *.playgroundSizeY 25000m
param *.playgroundSizeZ 50m
param *.world.use2D false
param *.world.useTorus false

vector 0  scenario.node[0].appl  distance  ETV
vector 1  scenario.node[0].appl  relativeSpeed  ETV
vector 2  scenario.node[0].appl  nodeId  ETV
vector 6  scenario.node[0].appl  acceleration  ETV
vector 7  scenario.node[0].appl  controllerAcceleration  ETV
vector 3  scenario.node[0].appl  speed  ETV
vector 4  scenario.node[0].appl  posx  ETV
vector 5  scenario.node[0].appl  posy  ETV
vector 22  scenario.node[1].appl  distance  ETV
vector 23  scenario.node[1].appl  relativeSpeed  ETV
vector 24  scenario.node[1].appl  nodeId  ETV
vector 28  scenario.node[1].appl  acceleration  ETV
vector 29  scenario.node[1].appl  controllerAcceleration  ETV
vector 25  scenario.node[1].appl  speed  ETV
vector 26  scenario.node[1].appl  posx  ETV
vector 27  scenario.node[1].appl  posy  ETV
vector 44  scenario.node[2].appl  distance  ETV
vector 45  scenario.node[2].appl  relativeSpeed  ETV
vector 46  scenario.node[2].appl  nodeId  ETV
vector 50  scenario.node[2].appl  acceleration  ETV
vector 51  scenario.node[2].appl  controllerAcceleration  ETV
vector 47  scenario.node[2].appl  speed  ETV
vector 48  scenario.node[2].appl  posx  ETV
vector 49  scenario.node[2].appl  posy  ETV
vector 66  scenario.node[3].appl  distance  ETV
vector 67  scenario.node[3].appl  relativeSpeed  ETV
vector 68  scenario.node[3].appl  nodeId  ETV
vector 72  scenario.node[3].appl  acceleration  ETV
vector 73  scenario.node[3].appl  controllerAcceleration  ETV
vector 69  scenario.node[3].appl  speed  ETV
vector 70  scenario.node[3].appl  posx  ETV
vector 71  scenario.node[3].appl  posy  ETV
vector 88  scenario.node[4].appl  distance  ETV
vector 89  scenario.node[4].appl  relativeSpeed  ETV
vector 90  scenario.node[4].appl  nodeId  ETV
vector 94  scenario.node[4].appl  acceleration  ETV
vector 95  scenario.node[4].appl  controllerAcceleration  ETV
vector 91  scenario.node[4].appl  speed  ETV
vector 92  scenario.node[4].appl  posx  ETV
vector 93  scenario.node[4].appl  posy  ETV
vector 110  scenario.node[5].appl  distance  ETV
vector 111  scenario.node[5].appl  relativeSpeed  ETV
vector 112  scenario.node[5].appl  nodeId  ETV
vector 116  scenario.node[5].appl  acceleration  ETV
vector 117  scenario.node[5].appl  controllerAcceleration  ETV
vector 113  scenario.node[5].appl  speed  ETV
vector 114  scenario.node[5].appl  posx  ETV
vector 115  scenario.node[5].appl  posy  ETV
vector 132  scenario.node[6].appl  distance  ETV
vector 133  scenario.node[6].appl  relativeSpeed  ETV
vector 134  scenario.node[6].appl  nodeId  ETV
vector 138  scenario.node[6].appl  acceleration  ETV
vector 139  scenario.node[6].appl  controllerAcceleration  ETV
vector 135  scenario.node[6].appl  speed  ETV
vector 136  scenario.node[6].appl  posx  ETV
vector 137  scenario.node[6].appl  posy  ETV
vector 154  scenario.node[7].appl  distance  ETV
vector 155  scenario.node[7].appl  relativeSpeed  ETV
vector 156  scenario.node[7].appl  nodeId  ETV
vector 160  scenario.node[7].appl  acceleration  ETV
vector 161  scenario.node[7].appl  controllerAcceleration  ETV
vector 157  scenario.node[7].appl  speed  ETV
vector 158  scenario.node[7].appl  posx  ETV
vector 159  scenario.node[7].appl  posy  ETV
vector 168  scenario.node[7].prot  frontDelay  ETV
vector 166  scenario.node[7].prot  frontDelayId  ETV
vector 146  scenario.node[6].prot  frontDelay  ETV
vector 144  scenario.node[6].prot  frontDelayId  ETV
vector 35  scenario.node[1].prot  leaderDelay  ETV
vector 33  scenario.node[1].prot  leaderDelayId  ETV
vector 36  scenario.node[1].prot  frontDelay  ETV
vector 34  scenario.node[1].prot  frontDelayId  ETV
vector 57  scenario.node[2].prot  leaderDelay  ETV
vector 55  scenario.node[2].prot  leaderDelayId  ETV
vector 79  scenario.node[3].prot  leaderDelay  ETV
vector 77  scenario.node[3].prot  leaderDelayId  ETV
vector 101  scenario.node[4].prot  leaderDelay  ETV
vector 99  scenario.node[4].prot  leaderDelayId  ETV
vector 123  scenario.node[5].prot  leaderDelay  ETV
vector 121  scenario.node[5].prot  leaderDelayId  ETV
vector 145  scenario.node[6].prot  leaderDelay  ETV
vector 143  scenario.node[6].prot  leaderDelayId  ETV
vector 167  scenario.node[7].prot  leaderDelay  ETV
vector 165  scenario.node[7].prot  leaderDelayId  ETV
vector 102  scenario.node[4].prot  frontDelay  ETV
vector 100  scenario.node[4].prot  frontDelayId  ETV
vector 80  scenario.node[3].prot  frontDelay  ETV
vector 78  scenario.node[3].prot  frontDelayId  ETV
vector 124  scenario.node[5].prot  frontDelay  ETV
vector 122  scenario.node[5].prot  frontDelayId  ETV
vector 58  scenario.node[2].prot  frontDelay  ETV
vector 56  scenario.node[2].prot  frontDelayId  ETV
vector 8  scenario.node[0].prot  nodeId  ETV
vector 9  scenario.node[0].prot  busyTime  ETV
vector 10  scenario.node[0].prot  collisions  ETV
vector 30  scenario.node[1].prot  nodeId  ETV
vector 31  scenario.node[1].prot  busyTime  ETV
vector 32  scenario.node[1].prot  collisions  ETV
vector 52  scenario.node[2].prot  nodeId  ETV
vector 53  scenario.node[2].prot  busyTime  ETV
vector 54  scenario.node[2].prot  collisions  ETV
vector 74  scenario.node[3].prot  nodeId  ETV
vector 75  scenario.node[3].prot  busyTime  ETV
vector 76  scenario.node[3].prot  collisions  ETV
vector 96  scenario.node[4].prot  nodeId  ETV
vector 97  scenario.node[4].prot  busyTime  ETV
vector 98  scenario.node[4].prot  collisions  ETV
vector 118  scenario.node[5].prot  nodeId  ETV
vector 119  scenario.node[5].prot  busyTime  ETV
vector 120  scenario.node[5].prot  collisions  ETV
vector 140  scenario.node[6].prot  nodeId  ETV
vector 141  scenario.node[6].prot  busyTime  ETV
vector 142  scenario.node[6].prot  collisions  ETV
vector 162  scenario.node[7].prot  nodeId  ETV
vector 163  scenario.node[7].prot  busyTime  ETV
vector 164  scenario.node[7].prot  collisions  ETV
7	232	1.11	-1.264609664986e-06
7	788	1.21	-1.2370558053476e-06
7	1344	1.31	-1.1922643139428e-06
7	1900	1.41	-1.1341353030048e-06
7	2456	1.51	-1.0661075364737e-06
7	3012	1.61	-9.9117950469463e-07
7	3568	1.71	-9.1193474816009e-07
7	4124	1.81	-8.3057002342457e-07
7	4680	1.91	-7.4892560064654e-07
7	5244	2.01	-6.6851609403784e-07
7	5800	2.11	-5.9056183232542e-07
7	6356	2.21	-5.1602003736662e-07
7	6912	2.31	-4.4561458878434e-07
7	7468	2.41	-3.7986517753552e-07
7	8024	2.51	-3.1911461206846e-07
7	8580	2.61	-2.6355444049386e-07
7	9136	2.71	-2.1324864718508e-07
7	9692	2.81	-1.6815555881067e-07
7	10248	2.91	-1.2814749794643e-07
7	10812	3.01	-9.3028553749264e-08
7	11368	3.11	-6.255026363533e-08
7	11924	3.21	-3.6425589655664e-08
7	12480	3.31	-1.4340962195547e-08
7	13036	3.41	4.0332679418498e-09
7	13592	3.51	1.9034231968362e-08
7	14148	3.61	3.0998883460143e-08
7	14704	3.71	4.0258086642098e-08
7	15260	3.81	4.7131671010447e-08
7	15816	3.91	5.1925063360159e-08
7	16380	4.01	5.4926061920924e-08
7	16936	4.11	5.6402775783226e-08
7	17492	4.21	5.6602530662531e-08
7	18048	4.31	5.5751151251116e-08
7	18604	4.41	5.4052726738973e-08
7	19160	4.51	5.1689909241759e-08
7	19716	4.61	4.8824482234977e-08
7	20272	4.71	4.5598198994412e-08
7	20828	4.81	4.2133798672239e-08
7	21384	4.91	3.8536192903393e-08
7	21949	5.01	3.4893794520485e-08
7	22506	5.11	0.34814790229188
7	23063	5.21	0.68726938086839
7	23620	5.31	1.0064706392337
7	24177	5.41	1.2963311769431
7	24734	5.51	1.5
7	25291	5.61	1.5
7	25848	5.71	1.5
7	26405	5.81	1.5
7	26962	5.91	1.5
7	27527	6.01	1.5
7	28084	6.11	1.5
7	28641	6.21	1.5
7	29198	6.31	1.5
7	29755	6.41	1.5
7	30312	6.51	1.4919234166485
7	30869	6.61	1.2264993309071
7	31426	6.71	0.9230538423432
7	31983	6.81	0.58908102202894
7	32540	6.91	0.23235621850268
7	33105	7.01	-0.13919559587845
7	33662	7.11	-0.51762846369643
7	34219	7.21	-0.89509993758214
7	34776	7.31	-1.2639902868434
7	35333	7.41	-1.5
7	35890	7.51	-1.5
7	36447	7.61	-1.5
7	37004	7.71	-1.5
7	37561	7.81	-1.5
7	38118	7.91	-1.5
7	38683	8.01	-1.5
7	39240	8.11	-1.5
7	39797	8.21	-1.5
7	40354	8.31	-1.5
7	40911	8.41	-1.5
7	41468	8.51	-1.5
7	42025	8.61	-1.5
7	42582	8.71	-1.5
7	43139	8.81	-1.5
7	43696	8.91	-1.5
7	44261	9.01	-1.5
7	44818	9.11	-1.5
7	45375	9.21	-1.5
7	45932	9.31	-1.5
7	46489	9.41	-1.5
7	47046	9.51	-1.1784535903605
7	47603	9.61	-0.73985166412807
7	48160	9.71	-0.29046662052636
7	48717	9.81	0.1586820567595
7	49274	9.91	0.59737147696769
7	49839	10.01	1.0162504342412
7	50396	10.11	1.4069035499393
7	50953	10.21	1.5
7	51510	10.31	1.5
7	52067	10.41	1.5
7	52624	10.51	1.5
7	53181	10.61	1.5
7	53738	10.71	1.5
7	54295	10.81	1.5
7	54852	10.91	1.5
7	55417	11.01	1.5
7	55974	11.11	1.5
7	56531	11.21	1.5
7	57088	11.31	1.5
7	57645	11.41	1.5
7	58202	11.51	1.5
7	58759	11.61	1.5
7	59316	11.71	1.5
7	59873	11.81	1.5
7	60430	11.91	1.1420569523654
7	60995	12.01	0.73271074176932
7	61552	12.11	0.30763491705864
7	62109	12.21	-0.12290183397916
7	62666	12.31	-0.54917422862574
7	63223	12.41	-0.96209331714029
7	63780	12.51	-1.3532900275071
7	64337	12.61	-1.5
7	64894	12.71	-1.5
7	65451	12.81	-1.5
7	66008	12.91	-1.5
7	66573	13.01	-1.5
7	67130	13.11	-1.5
7	67687	13.21	-1.5
7	68244	13.31	-1.5
7	68801	13.41	-1.5
7	69358	13.51	-1.5
7	69915	13.61	-1.5
7	70472	13.71	-1.5
7	71029	13.81	-1.5
7	71586	13.91	-1.5
7	72151	14.01	-1.5
7	72708	14.11	-1.5
7	73265	14.21	-1.5
7	73822	14.31	-1.5
7	74379	14.41	-1.3008305793046
7	74936	14.51	-0.88835736019924
7	75493	14.61	-0.45792464373664
7	76050	14.71	-0.020297800469415
7	76607	14.81	0.41435934758473
7	77164	14.91	0.83657487485725
7	77729	15.01	1.2376491839042
7	78286	15.11	1.5
7	78843	15.21	1.5
7	79400	15.31	1.5
7	79957	15.41	1.5
7	80514	15.51	1.5
7	81071	15.61	1.5
7	81628	15.71	1.5
7	82185	15.81	1.5
7	82742	15.91	1.5
7	83307	16.01	1.5
7	83864	16.11	1.5
7	84421	16.21	1.5
7	84978	16.31	1.5
7	85535	16.41	1.5
7	86092	16.51	1.5
7	86649	16.61	1.5
7	87206	16.71	1.5
7	87763	16.81	1.5
7	88320	16.91	1.2451238477419
7	88885	17.01	0.83347870135727
7	89442	17.11	0.40470958877236
7	89999	17.21	-0.030598062215738
7	90556	17.31	-0.46243980386358
7	91113	17.41	-0.88148335304344
7	91670	17.51	-1.2791500631696
7	92227	17.61	-1.5
7	92784	17.71	-1.5
7	93341	17.81	-1.5
7	93898	17.91	-1.5
7	94463	18.01	-1.5
7	95020	18.11	-1.5
7	95577	18.21	-1.5
7	96134	18.31	-1.5
7	96691	18.41	-1.5
7	97248	18.51	-1.5
7	97805	18.61	-1.5
7	98362	18.71	-1.5
7	98919	18.81	-1.5
7	99476	18.91	-1.5
7	100041	19.01	-1.5
7	100598	19.11	-1.5
7	101155	19.21	-1.5
7	101712	19.31	-1.5
7	102269	19.41	-1.2657245815119
7	102826	19.51	-0.85377693481423
7	103383	19.61	-0.42439560038014
7	103940	19.71	0.011767371268903
7	104497	19.81	0.44464851836469
7	105054	19.91	0.86486384400589
7	105619	20.01	1.2637899041132
7	106176	20.11	1.5
7	106733	20.21	1.5
7	107290	20.31	1.5
7	107847	20.41	1.5
7	108404	20.51	1.5
7	108961	20.61	1.5
7	109518	20.71	1.5
7	110075	20.81	1.5
7	110632	20.91	1.5
7	111197	21.01	1.5
7	111754	21.11	1.5
7	112311	21.21	1.5
7	112868	21.31	1.5
7	113425	21.41	1.5
7	113982	21.51	1.5
7	114539	21.61	1.5
7	115096	21.71	1.5
7	115653	21.81	1.5
7	116210	21.91	1.2580915517757
7	116775	22.01	0.84625491634767
7	117332	22.11	0.41709956367446
7	117889	22.21	-0.01874716354331
7	118446	22.31	-0.45124369149482
7	119003	22.41	-0.87102520538662
7	119560	22.51	-1.2694848794604
7	120117	22.61	-1.5
7	120674	22.71	-1.5
7	121231	22.81	-1.5
7	121788	22.91	-1.5
7	122353	23.01	-1.5
7	122910	23.11	-1.5
7	123467	23.21	-1.5
7	124024	23.31	-1.5
7	124581	23.41	-1.5
7	125138	23.51	-1.5
7	125695	23.61	-1.5
7	126252	23.71	-1.5
7	126809	23.81	-1.5
7	127366	23.91	-1.5
7	127931	24.01	-1.5
7	128488	24.11	-1.5
7	129045	24.21	-1.5
7	129602	24.31	-1.5
7	130159	24.41	-1.2609239651136
7	130716	24.51	-0.84904615684721
7	131273	24.61	-0.41980696481297
7	131830	24.71	0.0161570994443
7	132387	24.81	0.44879633965842
7	132944	24.91	0.86873882266714
7	133509	25.01	1.267371555718
7	134066	25.11	1.5
7	134623	25.21	1.5
7	135180	25.31	1.5
7	135737	25.41	1.5
7	136294	25.51	1.5
7	136851	25.61	1.5
7	137408	25.71	1.5
7	137965	25.81	1.5
7	138522	25.91	1.5
7	139087	26.01	1.5
7	139644	26.11	1.5
7	140201	26.21	1.5
7	140758	26.31	1.5
7	141315	26.41	1.5
7	141872	26.51	1.5
7	142429	26.61	1.5
7	142986	26.71	1.5
7	143543	26.81	1.5
7	144100	26.91	1.259872851865
7	144665	27.01	0.84801032251606
7	145222	27.11	0.41880224309333
7	145779	27.21	-0.017118277439927
7	146336	27.31	-0.449704557082
7	146893	27.41	-0.86958730431672
7	147450	27.51	-1.2681558149805
7	148007	27.61	-1.5
7	148564	27.71	-1.5
7	149121	27.81	-1.5
7	149678	27.91	-1.5
7	150243	28.01	-1.5
7	150800	28.11	-1.5
7	151357	28.21	-1.5
7	151914	28.31	-1.5
7	152471	28.41	-1.5
7	153028	28.51	-1.5
7	153585	28.61	-1.5
7	154142	28.71	-1.5
7	154699	28.81	-1.5
7	155256	28.91	-1.5
7	155821	29.01	-1.5
7	156378	29.11	-1.5
7	156935	29.21	-1.5
7	157492	29.31	-1.5
7	158049	29.41	-1.2602629232498
7	158606	29.51	-0.84839472385467
7	159163	29.61	-0.41917509845132
7	159720	29.71	0.016761581288272
7	160277	29.81	0.44936751475921
7	160834	29.91	0.8692724301223
7	161399	30.01	1.2678647739114
7	161956	30.11	1.5
7	162513	30.21	1.5
7	163070	30.31	1.5
7	163627	30.41	1.5
7	164184	30.51	1.5
7	164741	30.61	1.5
7	165298	30.71	1.5
7	165855	30.81	1.5
7	166412	30.91	1.5
7	166977	31.01	1.5
7	167534	31.11	1.5
7	168091	31.21	1.5
7	168648	31.31	1.5
7	169205	31.41	1.5
7	169762	31.51	1.5
7	170319	31.61	1.5
7	170876	31.71	1.5
7	171433	31.81	1.5
7	171990	31.91	1.2601181665227
7	172555	32.01	0.84825207129943
7	173112	32.11	0.41903673064581
7	173669	32.21	-0.016893952361286
7	174226	32.31	-0.44949259223436
7	174783	32.41	-0.86938928093497
7	175340	32.51	-1.2679727801759
7	175897	32.61	-1.5
7	176454	32.71	-1.5
7	177011	32.81	-1.5
7	177568	32.91	-1.5
7	178133	33.01	-1.5
6	232	1.11	-1.8587371641843e-07
6	788	1.21	-3.7715039979958e-07
6	1344	1.31	-5.2730015909219e-07
6	1900	1.41	-6.4101826069418e-07
6	2456	1.51	-7.2280812446479e-07
6	3012	1.61	-7.7694011224594e-07
6	3568	1.71	-8.0741315855448e-07
6	4124	1.81	-8.1792990158647e-07
6	4680	1.91	-8.1188602507609e-07
6	5244	2.01	-7.9236670558203e-07
6	5800	2.11	-7.6214163868826e-07
6	6356	2.21	-7.2367640768789e-07
6	6912	2.31	-6.7914172063865e-07
6	7468	2.41	-6.3042691067494e-07
6	8024	2.51	-5.791562784907e-07
6	8580	2.61	-5.2670969807878e-07
6	9136	2.71	-4.7423895921384e-07
6	9692	2.81	-4.226883731917e-07
6	10248	2.91	-3.7281679965417e-07
6	10812	3.01	-3.2521825232834e-07
6	11368	3.11	-2.8033753096679e-07
6	11924	3.21	-2.3849224817241e-07
6	12480	3.31	-1.9988561916762e-07
6	13036	3.41	-1.6463133079014e-07
6	13592	3.51	-1.3275709420668e-07
6	14148	3.61	-1.0422880336591e-07
6	14704	3.71	-7.8954798254927e-08
6	15260	3.81	-5.6805049553077e-08
6	15816	3.91	-3.7617553516611e-08
6	16380	4.01	-2.1201884692346e-08
6	16936	4.11	-7.354117315117e-09
6	17492	4.21	4.1374903503311e-09
6	18048	4.31	1.3491074923877e-08
6	18604	4.41	2.0921930854456e-08
6	19160	4.51	2.6641799877325e-08
6	19716	4.61	3.0856028843118e-08
6	20272	4.71	3.3759306461434e-08
6	20828	4.81	3.5534952758098e-08
6	21384	4.91	3.6354919075166e-08
6	21949	5.01	3.6375524814503e-08
6	22506	5.11	0.0068264645847194
6	23063	5.21	0.074594848256737
6	23620	5.31	0.19005135781356
6	24177	5.41	0.34050273679327
6	24734	5.51	0.51301639903159
6	25291	5.61	0.69025459358016
6	25848	5.71	0.8357267325124
6	26405	5.81	0.95506455436478
6	26962	5.91	1.0529631336311
6	27527	6.01	1.1332740666944
6	28084	6.11	1.1991570040927
6	28641	6.21	1.2532039597787
6	29198	6.31	1.2975412879882
6	29755	6.41	1.3339133398063
6	30312	6.51	1.3635927262982
6	30869	6.61	1.370205363024
6	31426	6.71	1.3272611941339
6	31983	6.81	1.237381093641
6	32540	6.91	1.1040433769786
6	33105	7.01	0.9314709214955
6	33662	7.11	0.72451590696545
6	34219	7.21	0.48854318469935
6	34776	7.31	0.22931329740459
6	35333	7.41	-0.044839397355645
6	35890	7.51	-0.30626147357466
6	36447	7.61	-0.52071862935179
6	37004	7.71	-0.69664819248914
6	37561	7.81	-0.84097171050672
6	38118	7.91	-0.95936726314534
6	38683	8.01	-1.0564928534642
6	39240	8.11	-1.1361696663563
6	39797	8.21	-1.2015324043531
6	40354	8.31	-1.255152615343
6	40911	8.41	-1.299139864269
6	41468	8.51	-1.3352247291408
6	42025	8.61	-1.3648268866902
6	42582	8.71	-1.3891109663092
6	43139	8.81	-1.4090323697367
6	43696	8.91	-1.4253748591699
6	44261	9.01	-1.4387813925914
6	44818	9.11	-1.4497794194909
6	45375	9.21	-1.4588016321618
6	45932	9.31	-1.466202988987
6	46489	9.41	-1.4722746794739
6	47046	9.51	-1.469624914661
6	47603	9.61	-1.3967850638842
6	48160	9.71	-1.2587757640922
6	48717	9.81	-1.0660952217464
6	49274	9.91	-0.82923335013376
6	49839	10.01	-0.55852907828324
6	50396	10.11	-0.26404116063858
6	50953	10.21	0.039432698787323
6	51510	10.31	0.30182609759564
6	52067	10.41	0.51708007620732
6	52624	10.51	0.69366331160268
6	53181	10.61	0.83852306854624
6	53738	10.71	0.95735852387477
6	54295	10.81	1.0548449876183
6	54852	10.91	1.1348178424115
6	55417	11.01	1.2004234378772
6	55974	11.11	1.2542428765791
6	56531	11.21	1.2983935616198
6	57088	11.31	1.3346125010308
6	57645	11.41	1.3643246463992
6	58202	11.51	1.3886989543394
6	58759	11.61	1.4086943764177
6	59316	11.71	1.425097586926
6	59873	11.81	1.4385539327783
6	60430	11.91	1.434562737289
6	60995	12.01	1.3623449188863
6	61552	12.11	1.229987565462
6	62109	12.21	1.0461448397947
6	62666	12.31	0.81967864250814
6	63223	12.41	0.55952045906622
6	63780	12.51	0.27454262951352
6	64337	12.61	-0.022341644856283
6	64894	12.71	-0.28780548056062
6	65451	12.81	-0.50557828686024
6	66008	12.91	-0.68422783826705
6	66573	13.01	-0.83078269403671
6	67130	13.11	-0.95100872080636
6	67687	13.21	-1.049635937467
6	68244	13.31	-1.1305446069755
6	68801	13.41	-1.1969178964527
6	69358	13.51	-1.2513671116331
6	69915	13.61	-1.2960344327361
6	70472	13.71	-1.3326771936626
6	71029	13.81	-1.3627370202911
6	71586	13.91	-1.3873965479604
6	72151	14.01	-1.4076259495589
6	72708	14.11	-1.4242211047687
6	73265	14.21	-1.4378349121301
6	73822	14.31	-1.4490029758548
6	74379	14.41	-1.4542593951845
6	74936	14.51	-1.4067454390002
6	75493	14.61	-1.2938574955257
6	76050	14.71	-1.1248409052179
6	76607	14.81	-0.90912582141769
6	77164	14.91	-0.65618298375156
6	77729	15.01	-0.37539052552589
6	78286	15.11	-0.078063005077667
6	78843	15.21	0.20543869668828
6	79400	15.31	0.43800883574505
6	79957	15.41	0.62879735392087
6	80514	15.51	0.78531039044307
6	81071	15.61	0.91370559386164
6	81628	15.71	1.0190343806975
6	82185	15.81	1.1054406719069
6	82742	15.91	1.1763239259999
6	83307	16.01	1.2344728829831
6	83864	16.11	1.2821752809849
6	84421	16.21	1.3213078620858
6	84978	16.31	1.353410208462
6	85535	16.41	1.3797453137336
6	86092	16.51	1.4013492725695
6	86649	16.61	1.4190720434712
6	87206	16.71	1.4336108884486
6	87763	16.81	1.4455378052077
6	88320	16.91	1.4502949065331
6	88885	17.01	1.3935559567543
6	89442	17.11	1.2733368701461
6	89999	17.21	1.0986742440551
6	90556	17.31	0.8787967659174
6	91113	17.41	0.6229832927616
6	91670	17.51	0.34043137853601
6	92227	17.61	0.043031849082098
6	92784	17.71	-0.23417644595227
6	93341	17.81	-0.46158379949475
6	93898	17.91	-0.64813703535265
6	94463	18.01	-0.80117566522517
6	95020	18.11	-0.92672064505592
6	95577	18.21	-1.0297112558185
6	96134	18.31	-1.114199428261
6	96691	18.41	-1.1835091568827
6	97248	18.51	-1.2403672749222
6	97805	18.61	-1.2870107353905
6	98362	18.71	-1.3252746188861
6	98919	18.81	-1.3566643306582
6	99476	18.91	-1.3824148273436
6	100041	19.01	-1.4035392035204
6	100598	19.11	-1.420868549603
6	101155	19.21	-1.4350846492
6	101712	19.31	-1.4467468023348
6	102269	19.41	-1.4517201941764
6	102826	19.51	-1.3984004323881
6	103383	19.61	-1.2808993810083
6	103940	19.71	-1.1083308503771
6	104497	19.81	-0.88999806036725
6	105054	19.91	-0.63525086466711
6	105619	20.01	-0.35335363991251
6	106176	20.11	-0.055983891306255
6	106733	20.21	0.22355126013451
6	107290	20.31	0.45286744637352
6	107847	20.41	0.64098658988883
6	108404	20.51	0.7953098094454
6	108961	20.61	0.92190860023962
6	109518	20.71	1.025763703035
6	110075	20.81	1.110961060045
6	110632	20.91	1.1808525670219
6	111197	21.01	1.2381879459468
6	111754	21.11	1.2852229265718
6	112311	21.21	1.3238079929607
6	112868	21.31	1.3554611865736
6	113425	21.41	1.3814278301389
6	113982	21.51	1.4027295220423
6	114539	21.61	1.4202043287803
6	115096	21.71	1.4345397567773
6	115653	21.81	1.4462998007623
6	116210	21.91	1.4512038299465
6	116775	22.01	1.3966149622043
6	117332	22.11	1.2781048258539
6	117889	22.21	1.104758616826
6	118446	22.31	0.88585193074024
6	119003	22.41	0.63070830476164
6	119560	22.51	0.34856734381066
6	120117	22.61	0.0511856543703
6	120674	22.71	-0.2274874856468
6	121231	22.81	-0.45609652228009
6	121788	22.91	-0.64363555681837
6	122353	23.01	-0.79748288496049
6	122910	23.11	-0.9236912790449
6	123467	23.21	-1.0272261205607
6	124024	23.31	-1.1121607517772
6	124581	23.41	-1.1818367320956
6	125138	23.51	-1.2389953040916
6	125695	23.61	-1.2858852414524
6	126252	23.71	-1.3243513218463
6	126809	23.81	-1.355906905502
6	127366	23.91	-1.3817934749042
6	127931	24.01	-1.403029478103
6	128488	24.11	-1.4204503972238
6	129045	24.21	-1.4347416186069
6	129602	24.31	-1.4464653977718
6	130159	24.41	-1.4513952146871
6	130716	24.51	-1.397277320676
6	131273	24.61	-1.2791416668563
6	131830	24.71	-1.1060840673032
6	132387	24.81	-0.88739036841687
6	132944	24.91	-0.63239387292811
6	133509	25.01	-0.35034337811126
6	134066	25.11	-0.052966136912147
6	134623	25.21	0.22602686982154
6	135180	25.31	0.45489830857193
6	135737	25.41	0.64265260423966
6	136294	25.51	0.7966765214853
6	136851	25.61	0.92302978013734
6	137408	25.71	1.0266834610576
6	137965	25.81	1.1117155819754
6	138522	25.91	1.1814715378058
6	139087	26.01	1.2386957175771
6	139644	26.11	1.2856394761641
6	140201	26.21	1.3241497087101
6	140758	26.31	1.3557415125085
6	141315	26.41	1.3816577950429
6	141872	26.51	1.4029181733591
6	142429	26.61	1.4203590885664
6	142986	26.71	1.4346667137048
6	143543	26.81	1.4464039496623
6	144100	26.91	1.4513241957715
6	144665	27.01	1.3970315218245
6	145222	27.11	1.2787568961947
6	145779	27.21	1.1055921925461
6	146336	27.31	0.8868194531928
6	146893	27.41	0.63176835684402
6	147450	27.51	0.34968428947408
6	148007	27.61	0.052305397196051
6	148564	27.71	-0.22656890652399
6	149121	27.81	-0.45534296745871
6	149678	27.91	-0.64301737940156
6	150243	28.01	-0.79697576417033
6	150800	28.11	-0.92327526336575
6	151357	28.21	-1.0268848428062
6	151914	28.31	-1.1118807851517
6	152471	28.41	-1.1816070619503
6	153028	28.51	-1.2388068945782
6	153585	28.61	-1.2857306800278
6	154142	28.71	-1.3242245276466
6	154699	28.81	-1.3558028900952
6	155256	28.91	-1.3817081460417
6	155821	29.01	-1.4029594787168
6	156378	29.11	-1.4203929733462
6	156935	29.21	-1.4346945110262
6	157492	29.31	-1.446426753148
6	158049	29.41	-1.4513505510308
6	158606	29.51	-1.3971227384744
6	159163	29.61	-1.2788996857282
6	159720	29.71	-1.1057747287524
6	160277	29.81	-0.88703132157306
6	160834	29.91	-0.63200048778214
6	161399	30.01	-0.34992887929945
6	161956	30.11	-0.052550599747292
6	162513	30.21	0.22636775502605
6	163070	30.31	0.45517795316883
6	163627	30.41	0.64288201020943
6	164184	30.51	0.79686471428317
6	164741	30.61	0.92318416377992
6	165298	30.71	1.0268101094155
6	165855	30.81	1.1118194777403
6	166412	30.91	1.181556768519
6	166977	31.01	1.2387656364474
6	167534	31.11	1.2856968339904
6	168091	31.21	1.3241967621056
6	168648	31.31	1.3557801126808
6	169205	31.41	1.3816894606293
6	169762	31.51	1.4029441501705
6	170319	31.61	1.4203803985993
6	170876	31.71	1.434684195354
6	171433	31.81	1.4464182907048
6	171990	31.91	1.4513407705138
6	172555	32.01	1.3970888876891
6	173112	32.11	1.2788466960821
6	173669	32.21	1.1057069889901
6	174226	32.31	0.88695269654835
6	174783	32.41	0.63191434325702
6	175340	32.51	0.3498381112415
6	175897	32.61	0.052459604304289
6	176454	32.71	-0.22644240298533
6	177011	32.81	-0.45523919049515
6	177568	32.91	-0.64293224614715
6	178133	33.01	-0.79690592524955
5	232	1.11	36.55
5	788	1.21	36.55
5	1344	1.31	36.55
5	1900	1.41	36.55
5	2456	1.51	36.55
5	3012	1.61	36.55
5	3568	1.71	36.55
5	4124	1.81	36.55
5	4680	1.91	36.55
5	5244	2.01	36.55
5	5800	2.11	36.55
5	6356	2.21	36.55
5	6912	2.31	36.55
5	7468	2.41	36.55
5	8024	2.51	36.55
5	8580	2.61	36.55
5	9136	2.71	36.55
5	9692	2.81	36.55
5	10248	2.91	36.55
5	10812	3.01	36.55
5	11368	3.11	36.55
5	11924	3.21	36.55
5	12480	3.31	36.55
5	13036	3.41	36.55
5	13592	3.51	36.55
5	14148	3.61	36.55
5	14704	3.71	36.55
5	15260	3.81	36.55
5	15816	3.91	36.55
5	16380	4.01	36.55
5	16936	4.11	36.55
5	17492	4.21	36.55
5	18048	4.31	36.55
5	18604	4.41	36.55
5	19160	4.51	36.55
5	19716	4.61	36.55
5	20272	4.71	36.55
5	20828	4.81	36.55
5	21384	4.91	36.55
5	21949	5.01	36.55
5	22506	5.11	36.55
5	23063	5.21	36.55
5	23620	5.31	36.55
5	24177	5.41	36.55
5	24734	5.51	36.55
5	25291	5.61	36.55
5	25848	5.71	36.55
5	26405	5.81	36.55
5	26962	5.91	36.55
5	27527	6.01	36.55
5	28084	6.11	36.55
5	28641	6.21	36.55
5	29198	6.31	36.55
5	29755	6.41	36.55
5	30312	6.51	36.55
5	30869	6.61	36.55
5	31426	6.71	36.55
5	31983	6.81	36.55
5	32540	6.91	36.55
5	33105	7.01	36.55
5	33662	7.11	36.55
5	34219	7.21	36.55
5	34776	7.31	36.55
5	35333	7.41	36.55
5	35890	7.51	36.55
5	36447	7.61	36.55
5	37004	7.71	36.55
5	37561	7.81	36.55
5	38118	7.91	36.55
5	38683	8.01	36.55
5	39240	8.11	36.55
5	39797	8.21	36.55
5	40354	8.31	36.55
5	40911	8.41	36.55
5	41468	8.51	36.55
5	42025	8.61	36.55
5	42582	8.71	36.55
5	43139	8.81	36.55
5	43696	8.91	36.55
5	44261	9.01	36.55
5	44818	9.11	36.55
5	45375	9.21	36.55
5	45932	9.31	36.55
5	46489	9.41	36.55
5	47046	9.51	36.55
5	47603	9.61	36.55
5	48160	9.71	36.55
5	48717	9.81	36.55
5	49274	9.91	36.55
5	49839	10.01	36.55
5	50396	10.11	36.55
5	50953	10.21	36.55
5	51510	10.31	36.55
5	52067	10.41	36.55
5	52624	10.51	36.55
5	53181	10.61	36.55
5	53738	10.71	36.55
5	54295	10.81	36.55
5	54852	10.91	36.55
5	55417	11.01	36.55
5	55974	11.11	36.55
5	56531	11.21	36.55
5	57088	11.31	36.55
5	57645	11.41	36.55
5	58202	11.51	36.55
5	58759	11.61	36.55
5	59316	11.71	36.55
5	59873	11.81	36.55
5	60430	11.91	36.55
5	60995	12.01	36.55
5	61552	12.11	36.55
5	62109	12.21	36.55
5	62666	12.31	36.55
5	63223	12.41	36.55
5	63780	12.51	36.55
5	64337	12.61	36.55
5	64894	12.71	36.55
5	65451	12.81	36.55
5	66008	12.91	36.55
5	66573	13.01	36.55
5	67130	13.11	36.55
5	67687	13.21	36.55
5	68244	13.31	36.55
5	68801	13.41	36.55
5	69358	13.51	36.55
5	69915	13.61	36.55
5	70472	13.71	36.55
5	71029	13.81	36.55
5	71586	13.91	36.55
5	72151	14.01	36.55
5	72708	14.11	36.55
5	73265	14.21	36.55
5	73822	14.31	36.55
5	74379	14.41	36.55
5	74936	14.51	36.55
5	75493	14.61	36.55
5	76050	14.71	36.55
5	76607	14.81	36.55
5	77164	14.91	36.55
5	77729	15.01	36.55
5	78286	15.11	36.55
5	78843	15.21	36.55
5	79400	15.31	36.55
5	79957	15.41	36.55
5	80514	15.51	36.55
5	81071	15.61	36.55
5	81628	15.71	36.55
5	82185	15.81	36.55
5	82742	15.91	36.55
5	83307	16.01	36.55
5	83864	16.11	36.55
5	84421	16.21	36.55
5	84978	16.31	36.55
5	85535	16.41	36.55
5	86092	16.51	36.55
5	86649	16.61	36.55
5	87206	16.71	36.55
5	87763	16.81	36.55
5	88320	16.91	36.55
5	88885	17.01	36.55
5	89442	17.11	36.55
5	89999	17.21	36.55
5	90556	17.31	36.55
5	91113	17.41	36.55
5	91670	17.51	36.55
5	92227	17.61	36.55
5	92784	17.71	36.55
5	93341	17.81	36.55
5	93898	17.91	36.55
5	94463	18.01	36.55
5	95020	18.11	36.55
5	95577	18.21	36.55
5	96134	18.31	36.55
5	96691	18.41	36.55
5	97248	18.51	36.55
5	97805	18.61	36.55
5	98362	18.71	36.55
5	98919	18.81	36.55
5	99476	18.91	36.55
5	100041	19.01	36.55
5	100598	19.11	36.55
5	101155	19.21	36.55
5	101712	19.31	36.55
5	102269	19.41	36.55
5	102826	19.51	36.55
5	103383	19.61	36.55
5	103940	19.71	36.55
5	104497	19.81	36.55
5	105054	19.91	36.55
5	105619	20.01	36.55
5	106176	20.11	36.55
5	106733	20.21	36.55
5	107290	20.31	36.55
5	107847	20.41	36.55
5	108404	20.51	36.55
5	108961	20.61	36.55
5	109518	20.71	36.55
5	110075	20.81	36.55
5	110632	20.91	36.55
5	111197	21.01	36.55
5	111754	21.11	36.55
5	112311	21.21	36.55
5	112868	21.31	36.55
5	113425	21.41	36.55
5	113982	21.51	36.55
5	114539	21.61	36.55
5	115096	21.71	36.55
5	115653	21.81	36.55
5	116210	21.91	36.55
5	116775	22.01	36.55
5	117332	22.11	36.55
5	117889	22.21	36.55
5	118446	22.31	36.55
5	119003	22.41	36.55
5	119560	22.51	36.55
5	120117	22.61	36.55
5	120674	22.71	36.55
5	121231	22.81	36.55
5	121788	22.91	36.55
5	122353	23.01	36.55
5	122910	23.11	36.55
5	123467	23.21	36.55
5	124024	23.31	36.55
5	124581	23.41	36.55
5	125138	23.51	36.55
5	125695	23.61	36.55
5	126252	23.71	36.55
5	126809	23.81	36.55
5	127366	23.91	36.55
5	127931	24.01	36.55
5	128488	24.11	36.55
5	129045	24.21	36.55
5	129602	24.31	36.55
5	130159	24.41	36.55
5	130716	24.51	36.55
5	131273	24.61	36.55
5	131830	24.71	36.55
5	132387	24.81	36.55
5	132944	24.91	36.55
5	133509	25.01	36.55
5	134066	25.11	36.55
5	134623	25.21	36.55
5	135180	25.31	36.55
5	135737	25.41	36.55
5	136294	25.51	36.55
5	136851	25.61	36.55
5	137408	25.71	36.55
5	137965	25.81	36.55
5	138522	25.91	36.55
5	139087	26.01	36.55
5	139644	26.11	36.55
5	140201	26.21	36.55
5	140758	26.31	36.55
5	141315	26.41	36.55
5	141872	26.51	36.55
5	142429	26.61	36.55
5	142986	26.71	36.55
5	143543	26.81	36.55
5	144100	26.91	36.55
5	144665	27.01	36.55
5	145222	27.11	36.55
5	145779	27.21	36.55
5	146336	27.31	36.55
5	146893	27.41	36.55
5	147450	27.51	36.55
5	148007	27.61	36.55
5	148564	27.71	36.55
5	149121	27.81	36.55
5	149678	27.91	36.55
5	150243	28.01	36.55
5	150800	28.11	36.55
5	151357	28.21	36.55
5	151914	28.31	36.55
5	152471	28.41	36.55
5	153028	28.51	36.55
5	153585	28.61	36.55
5	154142	28.71	36.55
5	154699	28.81	36.55
5	155256	28.91	36.55
5	155821	29.01	36.55
5	156378	29.11	36.55
5	156935	29.21	36.55
5	157492	29.31	36.55
5	158049	29.41	36.55
5	158606	29.51	36.55
5	159163	29.61	36.55
5	159720	29.71	36.55
5	160277	29.81	36.55
5	160834	29.91	36.55
5	161399	30.01	36.55
5	161956	30.11	36.55
5	162513	30.21	36.55
5	163070	30.31	36.55
5	163627	30.41	36.55
5	164184	30.51	36.55
5	164741	30.61	36.55
5	165298	30.71	36.55
5	165855	30.81	36.55
5	166412	30.91	36.55
5	166977	31.01	36.55
5	167534	31.11	36.55
5	168091	31.21	36.55
5	168648	31.31	36.55
5	169205	31.41	36.55
5	169762	31.51	36.55
5	170319	31.61	36.55
5	170876	31.71	36.55
5	171433	31.81	36.55
5	171990	31.91	36.55
5	172555	32.01	36.55
5	173112	32.11	36.55
5	173669	32.21	36.55
5	174226	32.31	36.55
5	174783	32.41	36.55
5	175340	32.51	36.55
5	175897	32.61	36.55
5	176454	32.71	36.55
5	177011	32.81	36.55
5	177568	32.91	36.55
5	178133	33.01	36.55
4	232	1.11	102.0599697109
4	788	1.21	106.22663650209
4	1344	1.31	110.39330328919
4	1900	1.41	114.5599700708
4	2456	1.51	118.72663684583
4	3012	1.61	122.89330361352
4	3568	1.71	127.05997037338
4	4124	1.81	131.22663712515
4	4680	1.91	135.39330386875
4	5244	2.01	139.55997060426
4	5800	2.11	143.72663733192
4	6356	2.21	147.89330405203
4	6912	2.31	152.05997076499
4	7468	2.41	156.22663747125
4	8024	2.51	160.39330417132
4	8580	2.61	164.5599708657
4	9136	2.71	168.72663755491
4	9692	2.81	172.89330423949
4	10248	2.91	177.05997091994
4	10812	3.01	181.22663759676
4	11368	3.11	185.39330427041
4	11924	3.21	189.55997094135
4	12480	3.31	193.72663760998
4	13036	3.41	197.89330427668
4	13592	3.51	202.0599709418
4	14148	3.61	206.22663760564
4	14704	3.71	210.3933042685
4	15260	3.81	214.55997093061
4	15816	3.91	218.72663759219
4	16380	4.01	222.89330425343
4	16936	4.11	227.05997091449
4	17492	4.21	231.22663757549
4	18048	4.31	235.39330423656
4	18604	4.41	239.55997089777
4	19160	4.51	243.7266375592
4	19716	4.61	247.89330422091
4	20272	4.71	252.05997088294
4	20828	4.81	256.2266375453
4	21384	4.91	260.39330420803
4	21949	5.01	264.55997087111
4	22506	5.11	268.72663889985
4	23063	5.21	272.89353343065
4	23620	5.31	277.06142805517
4	24177	5.41	281.23154740105
4	24734	5.51	285.40544145198
4	25291	5.61	289.58484507036
4	25848	5.71	293.77144374066
4	26405	5.81	297.96663950328
4	26962	5.91	302.17158265146
4	27527	6.01	306.38721682633
4	28084	6.11	310.61431614225
4	28641	6.21	314.85351564266
4	29198	6.31	319.10533628434
4	29755	6.41	323.3702054333
4	30312	6.51	327.64847364685
4	30869	6.61	331.94039867491
4	31426	6.71	336.24593408453
4	31983	6.81	340.56455335917
4	32540	6.91	344.8952677225
4	33105	7.01	349.23666246172
4	33662	7.11	353.58694046231
4	34219	7.21	357.94397179834
4	34776	7.31	362.30534821045
4	35333	7.41	366.66844176168
4	35890	7.51	371.03053952478
4	36447	7.61	375.38914369338
4	37004	7.71	379.74218712219
4	37561	7.81	384.08797403205
4	38118	7.91	388.42511329342
4	38683	8.01	392.75246369557
4	39240	8.11	397.06908904818
4	39797	8.21	401.37422134915
4	40354	8.31	405.66723056923
4	40911	8.41	409.94759986502
4	41468	8.51	414.2149052449
4	42025	8.61	418.46879888807
4	42582	8.71	422.70899546034
4	43139	8.81	426.93526088827
4	43696	8.91	431.14740315013
4	44261	9.01	435.34526472122
4	44818	9.11	439.5287163764
4	45375	9.21	443.69765210607
4	45932	9.31	447.85198494542
4	46489	9.41	451.99164355302
4	47046	9.51	456.11657166687
4	47603	9.61	460.22696458733
4	48160	9.71	464.32368363574
4	48717	9.81	468.40822057448
4	49274	9.91	472.48259251661
4	49839	10.01	476.54923730163
4	50396	10.11	480.61091064639
4	50953	10.21	484.67058531013
4	51510	10.31	488.73118950677
4	52067	10.41	492.79524454547
4	52624	10.51	496.86482525208
4	53181	10.61	500.94163370647
4	53738	10.71	505.02706620696
4	54295	10.81	509.12226820451
4	54852	10.91	513.22817936787
4	55417	11.01	517.3455705527
4	55974	11.11	521.47507412912
4	56531	11.21	525.61720886089
4	57088	11.31	529.77240031498
4	57645	11.41	533.94099760454
4	58202	11.51	538.12328712392
4	58759	11.61	542.31950381627
4	59316	11.71	546.52984041678
4	59873	11.81	550.75445503545
4	60430	11.91	554.99346257813
4	60995	12.01	559.24665801507
4	61552	12.11	563.51319603028
4	62109	12.21	567.79164752243
4	62666	12.31	572.0800866009
4	63223	12.41	576.37617937693
4	63780	12.51	580.67727318693
4	64337	12.61	584.9804858227
4	64894	12.71	589.2829285351
4	65451	12.81	593.58205554971
4	66008	12.91	597.87576776177
4	66573	13.01	602.16234317426
4	67130	13.11	606.44036914985
4	67687	13.21	610.70868683392
4	68244	13.31	614.96634556205
4	68801	13.41	619.21256545828
4	69358	13.51	623.44670675271
4	69915	13.61	627.6682446112
4	70472	13.71	631.87674848692
4	71029	13.81	636.07186518155
4	71586	13.91	640.25330494942
4	72151	14.01	644.42083009819
4	72708	14.11	648.57424563731
4	73265	14.21	652.71339160666
4	73822	14.31	656.8381367832
4	74379	14.41	660.9483742994
4	74936	14.51	665.04417069309
4	75493	14.61	669.12614127033
4	76050	14.71	673.1955297657
4	76607	14.81	677.25412199656
4	77164	14.91	681.30415144712
4	77729	15.01	685.34820471947
4	78286	15.11	689.38912773197
4	78843	15.21	693.4298633584
4	79400	15.31	697.47312075196
4	79957	15.41	701.5211416484
4	80514	15.51	705.57576505184
4	81071	15.61	709.63849958617
4	81628	15.71	713.71058284844
4	82185	15.81	717.79303009928
4	82742	15.91	721.88667420602
4	83307	16.01	725.99219840997
4	83864	16.11	730.11016320697
4	84421	16.21	734.24102839883
4	84978	16.31	738.38517118319
4	85535	16.41	742.54290099347
4	86092	16.51	746.71447167288
4	86649	16.61	750.90009146124
4	87206	16.71	755.09993118775
4	87763	16.81	759.31413099185
4	88320	16.91	763.54280482221
4	88885	17.01	767.78585617485
4	89442	17.11	772.04258667952
4	89999	17.21	776.31168267496
4	90556	17.31	780.59130486434
4	91113	17.41	784.87918073562
4	91670	17.51	789.17269721422
4	92227	17.61	793.46899283273
4	92784	17.71	797.76514194607
4	93341	17.81	802.05849229008
4	93898	17.91	806.34685189292
4	94463	18.01	810.62842257423
4	95020	18.11	814.9017291998
4	95577	18.21	819.16556164579
4	96134	18.31	823.41892718917
4	96691	18.41	827.66101145128
4	97248	18.51	831.89114635799
4	97805	18.61	836.1087838558
4	98362	18.71	840.31347434997
4	98919	18.81	844.50484901622
4	99476	18.91	848.68260529016
4	100041	19.01	852.84649496362
4	100598	19.11	856.99631441946
4	101155	19.21	861.13189662068
4	101712	19.31	865.25310453879
4	102269	19.41	869.35982668141
4	102826	19.51	873.45214821445
4	103383	19.61	877.53073667488
4	103940	19.71	881.59687979689
4	104497	19.81	885.65239704019
4	105054	19.91	889.69954643143
4	105619	20.01	893.74093120983
4	106176	20.11	897.77940705367
4	106733	20.21	901.81790595491
4	107290	20.31	905.85910120967
4	107847	20.41	909.90520318897
4	108404	20.51	913.95802516689
4	108961	20.61	918.01905465977
4	109518	20.71	922.08951194909
4	110075	20.81	926.17039809069
4	110632	20.91	930.26253429903
4	111197	21.01	934.366594256
4	111754	21.11	938.48313061539
4	112311	21.21	942.61259674579
4	112868	21.31	946.75536456736
4	113425	21.41	950.91173918417
4	113982	21.51	955.08197088781
4	114539	21.61	959.2662650046
4	115096	21.71	963.46478997359
4	115653	21.81	967.6776839735
4	116210	21.91	971.90505941034
4	116775	22.01	976.14682699189
4	117332	22.11	980.40230775844
4	117889	22.21	984.67020434975
4	118446	22.31	988.94868993876
4	119003	22.41	993.23550111653
4	119560	22.51	997.52803098648
4	120117	22.61	1001.8234217141
4	120674	22.71	1006.1187436521
4	121231	22.81	1010.4113312955
4	121788	22.91	1014.6989810894
4	122353	23.01	1018.9798853513
4	122910	23.11	1023.2525611521
4	123467	23.21	1027.5157919732
4	124024	23.31	1031.7685798459
4	124581	23.41	1036.010106088
4	125138	23.51	1040.2396990952
4	125695	23.61	1044.4568079179
4	126252	23.71	1048.6609805855
4	126809	23.81	1052.8518463249
4	127366	23.91	1057.0291009727
4	127931	24.01	1061.1924950092
4	128488	24.11	1065.3418237414
4	129045	24.21	1069.4769192494
4	129602	24.31	1073.5976437809
4	130159	24.41	1077.7038852681
4	130716	24.51	1081.7957314717
4	131273	24.61	1085.8738571122
4	131830	24.71	1089.9395559776
4	132387	24.81	1093.9946521609
4	132944	24.91	1098.0414070733
4	133509	25.01	1102.0824262541
4	134066	25.11	1106.1205667375
4	134623	25.21	1110.1587590406
4	135180	25.31	1114.1996715596
4	135737	25.41	1118.2455103785
4	136294	25.51	1122.2980852547
4	136851	25.61	1126.3588808195
4	137408	25.71	1130.4291149878
4	137965	25.81	1134.509786874
4	138522	25.91	1138.6017160996
4	139087	26.01	1142.7055750401
4	139644	26.11	1146.8219152775
4	140201	26.21	1150.9511893009
4	140758	26.31	1155.0937683093
4	141315	26.41	1159.249956815
4	141872	26.51	1163.4200046242
4	142429	26.61	1167.6041166649
4	142986	26.71	1171.8024610496
4	143543	26.81	1176.0151756889
4	144100	26.91	1180.2423727759
4	144665	27.01	1184.4839639819
4	145222	27.11	1188.7392730128
4	145779	27.21	1193.0070047552
4	146336	27.31	1197.2853341016
4	146893	27.41	1201.571998899
4	147450	27.51	1205.8643931048
4	148007	27.61	1210.1596593876
4	148564	27.71	1214.4548675532
4	149121	27.81	1218.7473502782
4	149678	27.91	1223.0349024172
4	150243	28.01	1227.3157149829
4	150800	28.11	1231.5883039755
4	151357	28.21	1235.8514519985
4	151914	28.31	1240.1041603626
4	152471	28.41	1244.3456097947
4	153028	28.51	1248.5751282056
4	153585	28.61	1252.7921642481
4	154142	28.71	1256.9962656254
4	154699	28.81	1261.1870612966
4	155256	28.91	1265.3642468788
4	155821	29.01	1269.5275726722
4	156378	29.11	1273.676833836
4	156935	29.21	1277.8118623292
4	157492	29.31	1281.9325202998
4	158049	29.41	1286.0386956013
4	158606	29.51	1290.1304763517
4	159163	29.61	1294.208538261
4	159720	29.71	1298.2741759508
4	160277	29.81	1302.3292141521
4	160834	29.91	1306.3759147426
4	161399	30.01	1310.4168835782
4	161956	30.11	1314.4549778798
4	162513	30.21	1318.4931279618
4	163070	30.31	1322.5340015453
4	163627	30.41	1326.5798041243
4	164184	30.51	1330.6323449718
4	164741	30.61	1334.693108322
4	165298	30.71	1338.7633117637
4	165855	30.81	1342.8439541439
4	166412	30.91	1346.9358548652
4	166977	31.01	1351.0396861228
4	167534	31.11	1355.1559993512
4	168091	31.21	1359.2852469186
4	168648	31.31	1363.4277999245
4	169205	31.41	1367.5839627998
4	169762	31.51	1371.7539852837
4	170319	31.61	1375.9380722496
4	170876	31.71	1380.1363917648
4	171433	31.81	1384.3490817032
4	171990	31.91	1388.5762542286
4	172555	32.01	1392.8178211446
4	173112	32.11	1397.0731065247
4	173669	32.21	1401.3408155647
4	174226	32.31	1405.6191233937
4	174783	32.41	1409.9057680322
4	175340	32.51	1414.1981435546
4	175897	32.61	1418.4933926993
4	176454	32.71	1422.7885851964
4	177011	32.81	1427.0810534724
4	177568	32.91	1431.3685921626
4	178133	33.01	1435.6493921002
3	232	1.11	41.666667929418
3	788	1.21	41.666667899951
3	1344	1.31	41.666667853658
3	1900	1.41	41.666667794392
3	2456	1.51	41.666667725546
3	3012	1.61	41.666667650077
3	3568	1.71	41.666667570527
3	4124	1.81	41.666667489057
3	4680	1.91	41.666667407473
3	5244	2.01	41.666667327259
3	5800	2.11	41.666667249607
3	6356	2.21	41.66666717545
3	6912	2.31	41.66666710549
3	7468	2.41	41.666667040228
3	8024	2.51	41.66666697999
3	8580	2.61	41.666666924954
3	9136	2.71	41.666666875173
3	9692	2.81	41.666666830595
3	10248	2.91	41.666666791086
3	10812	3.01	41.666666756443
3	11368	3.11	41.666666726414
3	11924	3.21	41.666666700707
3	12480	3.31	41.666666679009
3	13036	3.41	41.666666660987
3	13592	3.51	41.666666646305
3	14148	3.61	41.666666634625
3	14704	3.71	41.666666625619
3	15260	3.81	41.666666618967
3	15816	3.91	41.666666614365
3	16380	4.01	41.666666611529
3	16936	4.11	41.66666661019
3	17492	4.21	41.666666610106
3	18048	4.31	41.66666661105
3	18604	4.41	41.666666612823
3	19160	4.51	41.666666615243
3	19716	4.61	41.666666618151
3	20272	4.71	41.666666621406
3	20828	4.81	41.666666624888
3	21384	4.91	41.666666628494
3	21949	5.01	41.666666632137
3	22506	5.11	41.666734900033
3	23063	5.21	41.670948476405
3	23620	5.31	41.684664742913
3	24177	5.41	41.711945167374
3	24734	5.51	41.755610823567
3	25291	5.61	41.816952665848
3	25848	5.71	41.894216596382
3	26405	5.81	41.984547685456
3	26962	5.91	42.085598395823
3	27527	6.01	42.195442929292
3	28084	6.11	42.312501460593
3	28641	6.21	42.43547798275
3	29198	6.31	42.563309318645
3	29755	6.41	42.695123292736
3	30312	6.51	42.830202833657
3	30869	6.61	42.967277868462
3	31426	6.71	43.102240784882
3	31983	6.81	43.23027401884
3	32540	6.91	43.346870620625
3	33105	7.01	43.447913783684
3	33662	7.11	43.529744939715
3	34219	7.21	43.589220237998
3	34776	7.31	43.623755328609
3	35333	7.41	43.631381416411
3	35890	7.51	43.612092454521
3	36447	7.61	43.56932103241
3	37004	7.71	43.507285813978
3	37561	7.81	43.429447572987
3	38118	7.91	43.338645349306
3	38683	8.01	43.237208144466
3	39240	8.11	43.127046550912
3	39797	8.21	43.00972791991
3	40354	8.31	42.886538025405
3	40911	8.41	42.758531649867
3	41468	8.51	42.626574082303
3	42025	8.61	42.491375161077
3	42582	8.71	42.353517200886
3	43139	8.81	42.2134779026
3	43696	8.91	42.071649147316
3	44261	9.01	41.928352414027
3	44818	9.11	41.783851427477
3	45375	9.21	41.638362533812
3	45932	9.31	41.492063212224
3	46489	9.41	41.345099057468
3	47046	9.51	41.197687195957
3	47603	9.61	41.054345829873
3	48160	9.71	40.92197732765
3	48717	9.81	40.806518415565
3	49274	9.91	40.712854985186
3	49839	10.01	40.644830941643
3	50396	10.11	40.605270576133
3	50953	10.21	40.595961789979
3	51510	10.31	40.614765090574
3	52067	10.41	40.657138101268
3	52624	10.51	40.71884648357
3	53181	10.61	40.796416605098
3	53738	10.71	40.886998877433
3	54295	10.81	40.988255645561
3	54852	10.91	41.098269218164
3	55417	11.01	41.215466420431
3	55974	11.11	41.33855670108
3	56531	11.21	41.46648135856
3	57088	11.31	41.598371888854
3	57645	11.41	41.733515816169
3	58202	11.51	41.8713286622
3	58759	11.61	42.01133095116
3	59316	11.71	42.153129345907
3	59873	11.81	42.296401172981
3	60430	11.91	42.440475080365
3	60995	12.01	42.58031618601
3	61552	12.11	42.709536275545
3	62109	12.21	42.822598150946
3	62666	12.31	42.914842923842
3	63223	12.41	42.98250305941
3	63780	12.51	43.022702120469
3	64337	12.61	43.033484343958
3	64894	12.71	43.016216261811
3	65451	12.81	42.975102664961
3	66008	12.91	42.914427440664
3	66573	13.01	42.837704868549
3	67130	13.11	42.747817881934
3	67687	13.21	42.647131490264
3	68244	13.31	42.537585825019
3	68801	13.41	42.420772469757
3	69358	13.51	42.297997077347
3	69915	13.61	42.170330737898
3	70472	13.71	42.038652118361
3	71029	13.81	41.903682031675
3	71586	13.91	41.766011795509
3	72151	14.01	41.626126496309
3	72708	14.11	41.484424073913
3	73265	14.21	41.341230977594
3	73822	14.31	41.196815009456
3	74379	14.41	41.051434913329
3	74936	14.51	40.908219760552
3	75493	14.61	40.773448085166
3	76050	14.71	40.653147856182
3	76607	14.81	40.552410818743
3	77164	14.91	40.47538209096
3	77729	15.01	40.425263577507
3	78286	15.11	40.404308597451
3	78843	15.21	40.412557746568
3	79400	15.31	40.44627267704
3	79957	15.41	40.500878417952
3	80514	15.51	40.572621899691
3	81071	15.61	40.658424297982
3	81628	15.71	40.755759904564
3	82185	15.81	40.862556758959
3	82742	15.91	40.977115131913
3	83307	16.01	41.098040653421
3	83864	16.11	41.224189454421
3	84421	16.21	41.354623163871
3	84978	16.31	41.488571990683
3	85535	16.41	41.625404438048
3	86092	16.51	41.76460245863
3	86649	16.61	41.905741073179
3	87206	16.71	42.04847165069
3	87763	16.81	42.19250819231
3	88320	16.91	42.337565506681
3	88885	17.01	42.4798603368
3	89442	17.11	42.612895096878
3	89999	17.21	42.730819673225
3	90556	17.31	42.828699680314
3	91113	17.41	42.90252772365
3	91670	17.51	42.949221043622
3	92227	17.61	42.966635531731
3	92784	17.71	42.955239679248
3	93341	17.81	42.91894335602
3	93898	17.91	42.862219973949
3	94463	18.01	42.788739288885
3	95020	18.11	42.7015117788
3	95577	18.21	42.603007084181
3	96134	18.31	42.495251170402
3	96691	18.41	42.379906034713
3	97248	18.51	42.258335093733
3	97805	18.61	42.131656823968
3	98362	18.71	42.000788765715
3	98919	18.81	41.866483621601
3	99476	18.91	41.729358869944
3	100041	19.01	41.589921058033
3	100598	19.11	41.448585731074
3	101155	19.21	41.305693780873
3	101712	19.31	41.161524857441
3	102269	19.41	41.016354307546
3	102826	19.51	40.873722785233
3	103383	19.61	40.740048622954
3	103940	19.71	40.621247784992
3	104497	19.81	40.522312925574
3	105054	19.91	40.447302443002
3	105619	20.01	40.399343226154
3	106176	20.11	40.380619836989
3	106733	20.21	40.390852261269
3	107290	20.31	40.42619416815
3	107847	20.41	40.482134596392
3	108404	20.51	40.554972986614
3	108961	20.61	40.641673591217
3	109518	20.71	40.73974603982
3	110075	20.81	40.847147361314
3	110632	20.91	40.962201607825
3	111197	21.01	41.083533918363
3	111754	21.11	41.210016428051
3	112311	21.21	41.340723894856
3	112868	21.31	41.47489729805
3	113425	21.41	41.611913976267
3	113982	21.51	41.751263130315
3	114539	21.61	41.892525726947
3	115096	21.71	42.035358012948
3	115653	21.81	42.179477990955
3	116210	21.91	42.324606891881
3	116775	22.01	42.467114711865
3	117332	22.11	42.600552801533
3	117889	22.21	42.71902961828
3	118446	22.31	42.817574119593
3	119003	22.41	42.892146826113
3	119560	22.51	42.939637219565
3	120117	22.61	42.957875746063
3	120674	22.71	42.947212316072
3	121231	22.81	42.911516834389
3	121788	22.91	42.855286351658
3	122353	23.01	42.78221001573
3	122910	23.11	42.695314212772
3	123467	23.21	42.59708163353
3	124024	23.31	42.489548949138
3	124581	23.41	42.374386939297
3	125138	23.51	42.252966225295
3	125695	23.61	42.126411193975
3	126252	23.71	41.995644234173
3	126809	23.81	41.861422026
3	127366	23.91	41.724365310702
3	127931	24.01	41.584983312302
3	128488	24.11	41.443693771862
3	129045	24.21	41.300839382553
3	129602	24.31	41.156701272136
3	130159	24.41	41.011556940943
3	130716	24.51	40.869003238384
3	131273	24.61	40.735477564529
3	131830	24.71	40.616880524647
3	132387	24.81	40.518191181199
3	132944	24.91	40.443456034258
3	133509	25.01	40.395791677168
3	134066	25.11	40.377373233275
3	134623	25.21	40.387876729909
3	135180	25.31	40.423441010534
3	135737	25.41	40.479563862699
3	136294	25.51	40.552551904076
3	136851	25.61	40.63937527475
3	137408	25.71	40.73754843429
3	137965	25.81	40.845032373831
3	138522	25.91	40.960154395916
3	139087	26.01	41.08154230603
3	139644	26.11	41.208070426737
3	140201	26.21	41.338815310463
3	140758	26.31	41.473019408564
3	141315	26.41	41.610061267297
3	141872	26.51	41.749431078138
3	142429	26.61	41.890710620534
3	142986	26.71	42.033556807965
3	143543	26.81	42.177688189986
3	144100	26.91	42.32282679545
3	144665	27.01	42.465363471292
3	145222	27.11	42.598856642818
3	145779	27.21	42.717409067934
3	146336	27.31	42.816044660405
3	146893	27.41	42.890719525564
3	147450	27.51	42.938319324542
3	148007	27.61	42.956671000835
3	148564	27.71	42.946108152695
3	149121	27.81	42.910495183162
3	149678	27.91	42.854332389134
3	150243	28.01	42.781311581518
3	150800	28.11	42.694461331116
3	151357	28.21	42.596266120836
3	151914	28.31	42.488764092008
3	152471	28.41	42.373627230407
3	153028	28.51	42.252227146722
3	153585	28.61	42.125689039447
3	154142	28.71	41.994935963255
3	154699	28.81	41.86072514448
3	155256	28.91	41.723677772453
3	155821	29.01	41.584303438791
3	156378	29.11	41.443020186105
3	156935	29.21	41.300170954946
3	157492	29.31	41.156037076006
3	158049	29.41	41.010896345715
3	158606	29.51	40.868353351213
3	159163	29.61	40.734848117978
3	159720	29.71	40.616279136189
3	160277	29.81	40.517623596567
3	160834	29.91	40.442926360655
3	161399	30.01	40.395302603962
3	161956	30.11	40.376926150007
3	162513	30.21	40.387466972619
3	163070	30.31	40.423061873548
3	163627	30.41	40.479209845027
3	164184	30.51	40.55221849299
3	164741	30.61	40.639058768242
3	165298	30.71	40.737245795424
3	165855	30.81	40.844741111261
3	166412	30.91	40.959872465872
3	166977	31.01	41.081268031907
3	167534	31.11	41.207802433136
3	168091	31.21	41.338552469078
3	168648	31.31	41.47276079379
3	169205	31.41	41.609806119816
3	169762	31.51	41.749178775045
3	170319	31.61	41.890460650831
3	170876	31.71	42.033308752454
3	171433	31.81	42.177441704779
3	171990	31.91	42.32258164654
3	172555	32.01	42.465122296168
3	173112	32.11	42.598623053264
3	173669	32.21	42.71718589082
3	174226	32.31	42.815834027991
3	174783	32.41	42.890522962046
3	175340	32.51	42.938137827955
3	175897	32.61	42.956505086842
3	176454	32.71	42.945956090486
3	177011	32.81	42.910354484241
3	177568	32.91	42.854201012067
3	178133	33.01	42.781187851618
1	232	1.11	0
1	788	1.21	0
1	1344	1.31	0
1	1900	1.41	0
1	2456	1.51	0
1	3012	1.61	0
1	3568	1.71	0
1	4124	1.81	0
1	4680	1.91	0
1	5244	2.01	0
1	5800	2.11	0
1	6356	2.21	0
1	6912	2.31	0
1	7468	2.41	0
1	8024	2.51	0
1	8580	2.61	0
1	9136	2.71	0
1	9692	2.81	0
1	10248	2.91	0
1	10812	3.01	0
1	11368	3.11	0
1	11924	3.21	0
1	12480	3.31	0
1	13036	3.41	0
1	13592	3.51	0
1	14148	3.61	0
1	14704	3.71	0
1	15260	3.81	0
1	15816	3.91	0
1	16380	4.01	0
1	16936	4.11	0
1	17492	4.21	0
1	18048	4.31	0
1	18604	4.41	0
1	19160	4.51	0
1	19716	4.61	0
1	20272	4.71	0
1	20828	4.81	0
1	21384	4.91	0
1	21949	5.01	0
1	22506	5.11	0
1	23063	5.21	0
1	23620	5.31	0
1	24177	5.41	0
1	24734	5.51	0
1	25291	5.61	0
1	25848	5.71	0
1	26405	5.81	0
1	26962	5.91	0
1	27527	6.01	0
1	28084	6.11	0
1	28641	6.21	0
1	29198	6.31	0
1	29755	6.41	0
1	30312	6.51	0
1	30869	6.61	0
1	31426	6.71	0
1	31983	6.81	0
1	32540	6.91	0
1	33105	7.01	0
1	33662	7.11	0
1	34219	7.21	0
1	34776	7.31	0
1	35333	7.41	0
1	35890	7.51	0
1	36447	7.61	0
1	37004	7.71	0
1	37561	7.81	0
1	38118	7.91	0
1	38683	8.01	0
1	39240	8.11	0
1	39797	8.21	0
1	40354	8.31	0
1	40911	8.41	0
1	41468	8.51	0
1	42025	8.61	0
1	42582	8.71	0
1	43139	8.81	0
1	43696	8.91	0
1	44261	9.01	0
1	44818	9.11	0
1	45375	9.21	0
1	45932	9.31	0
1	46489	9.41	0
1	47046	9.51	0
1	47603	9.61	0
1	48160	9.71	0
1	48717	9.81	0
1	49274	9.91	0
1	49839	10.01	0
1	50396	10.11	0
1	50953	10.21	0
1	51510	10.31	0
1	52067	10.41	0
1	52624	10.51	0
1	53181	10.61	0
1	53738	10.71	0
1	54295	10.81	0
1	54852	10.91	0
1	55417	11.01	0
1	55974	11.11	0
1	56531	11.21	0
1	57088	11.31	0
1	57645	11.41	0
1	58202	11.51	0
1	58759	11.61	0
1	59316	11.71	0
1	59873	11.81	0
1	60430	11.91	0
1	60995	12.01	0
1	61552	12.11	0
1	62109	12.21	0
1	62666	12.31	0
1	63223	12.41	0
1	63780	12.51	0
1	64337	12.61	0
1	64894	12.71	0
1	65451	12.81	0
1	66008	12.91	0
1	66573	13.01	0
1	67130	13.11	0
1	67687	13.21	0
1	68244	13.31	0
1	68801	13.41	0
1	69358	13.51	0
1	69915	13.61	0
1	70472	13.71	0
1	71029	13.81	0
1	71586	13.91	0
1	72151	14.01	0
1	72708	14.11	0
1	73265	14.21	0
1	73822	14.31	0
1	74379	14.41	0
1	74936	14.51	0
1	75493	14.61	0
1	76050	14.71	0
1	76607	14.81	0
1	77164	14.91	0
1	77729	15.01	0
1	78286	15.11	0
1	78843	15.21	0
1	79400	15.31	0
1	79957	15.41	0
1	80514	15.51	0
1	81071	15.61	0
1	81628	15.71	0
1	82185	15.81	0
1	82742	15.91	0
1	83307	16.01	0
1	83864	16.11	0
1	84421	16.21	0
1	84978	16.31	0
1	85535	16.41	0
1	86092	16.51	0
1	86649	16.61	0
1	87206	16.71	0
1	87763	16.81	0
1	88320	16.91	0
1	88885	17.01	0
1	89442	17.11	0
1	89999	17.21	0
1	90556	17.31	0
1	91113	17.41	0
1	91670	17.51	0
1	92227	17.61	0
1	92784	17.71	0
1	93341	17.81	0
1	93898	17.91	0
1	94463	18.01	0
1	95020	18.11	0
1	95577	18.21	0
1	96134	18.31	0
1	96691	18.41	0
1	97248	18.51	0
1	97805	18.61	0
1	98362	18.71	0
1	98919	18.81	0
1	99476	18.91	0
1	100041	19.01	0
1	100598	19.11	0
1	101155	19.21	0
1	101712	19.31	0
1	102269	19.41	0
1	102826	19.51	0
1	103383	19.61	0
1	103940	19.71	0
1	104497	19.81	0
1	105054	19.91	0
1	105619	20.01	0
1	106176	20.11	0
1	106733	20.21	0
1	107290	20.31	0
1	107847	20.41	0
1	108404	20.51	0
1	108961	20.61	0
1	109518	20.71	0
1	110075	20.81	0
1	110632	20.91	0
1	111197	21.01	0
1	111754	21.11	0
1	112311	21.21	0
1	112868	21.31	0
1	113425	21.41	0
1	113982	21.51	0
1	114539	21.61	0
1	115096	21.71	0
1	115653	21.81	0
1	116210	21.91	0
1	116775	22.01	0
1	117332	22.11	0
1	117889	22.21	0
1	118446	22.31	0
1	119003	22.41	0
1	119560	22.51	0
1	120117	22.61	0
1	120674	22.71	0
1	121231	22.81	0
1	121788	22.91	0
1	122353	23.01	0
1	122910	23.11	0
1	123467	23.21	0
1	124024	23.31	0
1	124581	23.41	0
1	125138	23.51	0
1	125695	23.61	0
1	126252	23.71	0
1	126809	23.81	0
1	127366	23.91	0
1	127931	24.01	0
1	128488	24.11	0
1	129045	24.21	0
1	129602	24.31	0
1	130159	24.41	0
1	130716	24.51	0
1	131273	24.61	0
1	131830	24.71	0
1	132387	24.81	0
1	132944	24.91	0
1	133509	25.01	0
1	134066	25.11	0
1	134623	25.21	0
1	135180	25.31	0
1	135737	25.41	0
1	136294	25.51	0
1	136851	25.61	0
1	137408	25.71	0
1	137965	25.81	0
1	138522	25.91	0
1	139087	26.01	0
1	139644	26.11	0
1	140201	26.21	0
1	140758	26.31	0
1	141315	26.41	0
1	141872	26.51	0
1	142429	26.61	0
1	142986	26.71	0
1	143543	26.81	0
1	144100	26.91	0
1	144665	27.01	0
1	145222	27.11	0
1	145779	27.21	0
1	146336	27.31	0
1	146893	27.41	0
1	147450	27.51	0
1	148007	27.61	0
1	148564	27.71	0
1	149121	27.81	0
1	149678	27.91	0
1	150243	28.01	0
1	150800	28.11	0
1	151357	28.21	0
1	151914	28.31	0
1	152471	28.41	0
1	153028	28.51	0
1	153585	28.61	0
1	154142	28.71	0
1	154699	28.81	0
1	155256	28.91	0
1	155821	29.01	0
1	156378	29.11	0
1	156935	29.21	0
1	157492	29.31	0
1	158049	29.41	0
1	158606	29.51	0
1	159163	29.61	0
1	159720	29.71	0
1	160277	29.81	0
1	160834	29.91	0
1	161399	30.01	0
1	161956	30.11	0
1	162513	30.21	0
1	163070	30.31	0
1	163627	30.41	0
1	164184	30.51	0
1	164741	30.61	0
1	165298	30.71	0
1	165855	30.81	0
1	166412	30.91	0
1	166977	31.01	0
1	167534	31.11	0
1	168091	31.21	0
1	168648	31.31	0
1	169205	31.41	0
1	169762	31.51	0
1	170319	31.61	0
1	170876	31.71	0
1	171433	31.81	0
1	171990	31.91	0
1	172555	32.01	0
1	173112	32.11	0
1	173669	32.21	0
1	174226	32.31	0
1	174783	32.41	0
1	175340	32.51	0
1	175897	32.61	0
1	176454	32.71	0
1	177011	32.81	0
1	177568	32.91	0
1	178133	33.01	0
0	232	1.11	-1
0	788	1.21	-1
0	1344	1.31	-1
0	1900	1.41	-1
0	2456	1.51	-1
0	3012	1.61	-1
0	3568	1.71	-1
0	4124	1.81	-1
0	4680	1.91	-1
0	5244	2.01	-1
0	5800	2.11	-1
0	6356	2.21	-1
0	6912	2.31	-1
0	7468	2.41	-1
0	8024	2.51	-1
0	8580	2.61	-1
0	9136	2.71	-1
0	9692	2.81	-1
0	10248	2.91	-1
0	10812	3.01	-1
0	11368	3.11	-1
0	11924	3.21	-1
0	12480	3.31	-1
0	13036	3.41	-1
0	13592	3.51	-1
0	14148	3.61	-1
0	14704	3.71	-1
0	15260	3.81	-1
0	15816	3.91	-1
0	16380	4.01	-1
0	16936	4.11	-1
0	17492	4.21	-1
0	18048	4.31	-1
0	18604	4.41	-1
0	19160	4.51	-1
0	19716	4.61	-1
0	20272	4.71	-1
0	20828	4.81	-1
0	21384	4.91	-1
0	21949	5.01	-1
0	22506	5.11	-1
0	23063	5.21	-1
0	23620	5.31	-1
0	24177	5.41	-1
0	24734	5.51	-1
0	25291	5.61	-1
0	25848	5.71	-1
0	26405	5.81	-1
0	26962	5.91	-1
0	27527	6.01	-1
0	28084	6.11	-1
0	28641	6.21	-1
0	29198	6.31	-1
0	29755	6.41	-1
0	30312	6.51	-1
0	30869	6.61	-1
0	31426	6.71	-1
0	31983	6.81	-1
0	32540	6.91	-1
0	33105	7.01	-1
0	33662	7.11	-1
0	34219	7.21	-1
0	34776	7.31	-1
0	35333	7.41	-1
0	35890	7.51	-1
0	36447	7.61	-1
0	37004	7.71	-1
0	37561	7.81	-1
0	38118	7.91	-1
0	38683	8.01	-1
0	39240	8.11	-1
0	39797	8.21	-1
0	40354	8.31	-1
0	40911	8.41	-1
0	41468	8.51	-1
0	42025	8.61	-1
0	42582	8.71	-1
0	43139	8.81	-1
0	43696	8.91	-1
0	44261	9.01	-1
0	44818	9.11	-1
0	45375	9.21	-1
0	45932	9.31	-1
0	46489	9.41	-1
0	47046	9.51	-1
0	47603	9.61	-1
0	48160	9.71	-1
0	48717	9.81	-1
0	49274	9.91	-1
0	49839	10.01	-1
0	50396	10.11	-1
0	50953	10.21	-1
0	51510	10.31	-1
0	52067	10.41	-1
0	52624	10.51	-1
0	53181	10.61	-1
0	53738	10.71	-1
0	54295	10.81	-1
0	54852	10.91	-1
0	55417	11.01	-1
0	55974	11.11	-1
0	56531	11.21	-1
0	57088	11.31	-1
0	57645	11.41	-1
0	58202	11.51	-1
0	58759	11.61	-1
0	59316	11.71	-1
0	59873	11.81	-1
0	60430	11.91	-1
0	60995	12.01	-1
0	61552	12.11	-1
0	62109	12.21	-1
0	62666	12.31	-1
0	63223	12.41	-1
0	63780	12.51	-1
0	64337	12.61	-1
0	64894	12.71	-1
0	65451	12.81	-1
0	66008	12.91	-1
0	66573	13.01	-1
0	67130	13.11	-1
0	67687	13.21	-1
0	68244	13.31	-1
0	68801	13.41	-1
0	69358	13.51	-1
0	69915	13.61	-1
0	70472	13.71	-1
0	71029	13.81	-1
0	71586	13.91	-1
0	72151	14.01	-1
0	72708	14.11	-1
0	73265	14.21	-1
0	73822	14.31	-1
0	74379	14.41	-1
0	74936	14.51	-1
0	75493	14.61	-1
0	76050	14.71	-1
0	76607	14.81	-1
0	77164	14.91	-1
0	77729	15.01	-1
0	78286	15.11	-1
0	78843	15.21	-1
0	79400	15.31	-1
0	79957	15.41	-1
0	80514	15.51	-1
0	81071	15.61	-1
0	81628	15.71	-1
0	82185	15.81	-1
0	82742	15.91	-1
0	83307	16.01	-1
0	83864	16.11	-1
0	84421	16.21	-1
0	84978	16.31	-1
0	85535	16.41	-1
0	86092	16.51	-1
0	86649	16.61	-1
0	87206	16.71	-1
0	87763	16.81	-1
0	88320	16.91	-1
0	88885	17.01	-1
0	89442	17.11	-1
0	89999	17.21	-1
0	90556	17.31	-1
0	91113	17.41	-1
0	91670	17.51	-1
0	92227	17.61	-1
0	92784	17.71	-1
0	93341	17.81	-1
0	93898	17.91	-1
0	94463	18.01	-1
0	95020	18.11	-1
0	95577	18.21	-1
0	96134	18.31	-1
0	96691	18.41	-1
0	97248	18.51	-1
0	97805	18.61	-1
0	98362	18.71	-1
0	98919	18.81	-1
0	99476	18.91	-1
0	100041	19.01	-1
0	100598	19.11	-1
0	101155	19.21	-1
0	101712	19.31	-1
0	102269	19.41	-1
0	102826	19.51	-1
0	103383	19.61	-1
0	103940	19.71	-1
0	104497	19.81	-1
0	105054	19.91	-1
0	105619	20.01	-1
0	106176	20.11	-1
0	106733	20.21	-1
0	107290	20.31	-1
0	107847	20.41	-1
0	108404	20.51	-1
0	108961	20.61	-1
0	109518	20.71	-1
0	110075	20.81	-1
0	110632	20.91	-1
0	111197	21.01	-1
0	111754	21.11	-1
0	112311	21.21	-1
0	112868	21.31	-1
0	113425	21.41	-1
0	113982	21.51	-1
0	114539	21.61	-1
0	115096	21.71	-1
0	115653	21.81	-1
0	116210	21.91	-1
0	116775	22.01	-1
0	117332	22.11	-1
0	117889	22.21	-1
0	118446	22.31	-1
0	119003	22.41	-1
0	119560	22.51	-1
0	120117	22.61	-1
0	120674	22.71	-1
0	121231	22.81	-1
0	121788	22.91	-1
0	122353	23.01	-1
0	122910	23.11	-1
0	123467	23.21	-1
0	124024	23.31	-1
0	124581	23.41	-1
0	125138	23.51	-1
0	125695	23.61	-1
0	126252	23.71	-1
0	126809	23.81	-1
0	127366	23.91	-1
0	127931	24.01	-1
0	128488	24.11	-1
0	129045	24.21	-1
0	129602	24.31	-1
0	130159	24.41	-1
0	130716	24.51	-1
0	131273	24.61	-1
0	131830	24.71	-1
0	132387	24.81	-1
0	132944	24.91	-1
0	133509	25.01	-1
0	134066	25.11	-1
0	134623	25.21	-1
0	135180	25.31	-1
0	135737	25.41	-1
0	136294	25.51	-1
0	136851	25.61	-1
0	137408	25.71	-1
0	137965	25.81	-1
0	138522	25.91	-1
0	139087	26.01	-1
0	139644	26.11	-1
0	140201	26.21	-1
0	140758	26.31	-1
0	141315	26.41	-1
0	141872	26.51	-1
0	142429	26.61	-1
0	142986	26.71	-1
0	143543	26.81	-1
0	144100	26.91	-1
0	144665	27.01	-1
0	145222	27.11	-1
0	145779	27.21	-1
0	146336	27.31	-1
0	146893	27.41	-1
0	147450	27.51	-1
0	148007	27.61	-1
0	148564	27.71	-1
0	149121	27.81	-1
0	149678	27.91	-1
0	150243	28.01	-1
0	150800	28.11	-1
0	151357	28.21	-1
0	151914	28.31	-1
0	152471	28.41	-1
0	153028	28.51	-1
0	153585	28.61	-1
0	154142	28.71	-1
0	154699	28.81	-1
0	155256	28.91	-1
0	155821	29.01	-1
0	156378	29.11	-1
0	156935	29.21	-1
0	157492	29.31	-1
0	158049	29.41	-1
0	158606	29.51	-1
0	159163	29.61	-1
0	159720	29.71	-1
0	160277	29.81	-1
0	160834	29.91	-1
0	161399	30.01	-1
0	161956	30.11	-1
0	162513	30.21	-1
0	163070	30.31	-1
0	163627	30.41	-1
0	164184	30.51	-1
0	164741	30.61	-1
0	165298	30.71	-1
0	165855	30.81	-1
0	166412	30.91	-1
0	166977	31.01	-1
0	167534	31.11	-1
0	168091	31.21	-1
0	168648	31.31	-1
0	169205	31.41	-1
0	169762	31.51	-1
0	170319	31.61	-1
0	170876	31.71	-1
0	171433	31.81	-1
0	171990	31.91	-1
0	172555	32.01	-1
0	173112	32.11	-1
0	173669	32.21	-1
0	174226	32.31	-1
0	174783	32.41	-1
0	175340	32.51	-1
0	175897	32.61	-1
0	176454	32.71	-1
0	177011	32.81	-1
0	177568	32.91	-1
0	178133	33.01	-1
2	232	1.11	0
2	788	1.21	0
2	1344	1.31	0
2	1900	1.41	0
2	2456	1.51	0
2	3012	1.61	0
2	3568	1.71	0
2	4124	1.81	0
2	4680	1.91	0
2	5244	2.01	0
2	5800	2.11	0
2	6356	2.21	0
2	6912	2.31	0
2	7468	2.41	0
2	8024	2.51	0
2	8580	2.61	0
2	9136	2.71	0
2	9692	2.81	0
2	10248	2.91	0
2	10812	3.01	0
2	11368	3.11	0
2	11924	3.21	0
2	12480	3.31	0
2	13036	3.41	0
2	13592	3.51	0
2	14148	3.61	0
2	14704	3.71	0
2	15260	3.81	0
2	15816	3.91	0
2	16380	4.01	0
2	16936	4.11	0
2	17492	4.21	0
2	18048	4.31	0
2	18604	4.41	0
2	19160	4.51	0
2	19716	4.61	0
2	20272	4.71	0
2	20828	4.81	0
2	21384	4.91	0
2	21949	5.01	0
2	22506	5.11	0
2	23063	5.21	0
2	23620	5.31	0
2	24177	5.41	0
2	24734	5.51	0
2	25291	5.61	0
2	25848	5.71	0
2	26405	5.81	0
2	26962	5.91	0
2	27527	6.01	0
2	28084	6.11	0
2	28641	6.21	0
2	29198	6.31	0
2	29755	6.41	0
2	30312	6.51	0
2	30869	6.61	0
2	31426	6.71	0
2	31983	6.81	0
2	32540	6.91	0
2	33105	7.01	0
2	33662	7.11	0
2	34219	7.21	0
2	34776	7.31	0
2	35333	7.41	0
2	35890	7.51	0
2	36447	7.61	0
2	37004	7.71	0
2	37561	7.81	0
2	38118	7.91	0
2	38683	8.01	0
2	39240	8.11	0
2	39797	8.21	0
2	40354	8.31	0
2	40911	8.41	0
2	41468	8.51	0
2	42025	8.61	0
2	42582	8.71	0
2	43139	8.81	0
2	43696	8.91	0
2	44261	9.01	0
2	44818	9.11	0
2	45375	9.21	0
2	45932	9.31	0
2	46489	9.41	0
2	47046	9.51	0
2	47603	9.61	0
2	48160	9.71	0
2	48717	9.81	0
2	49274	9.91	0
2	49839	10.01	0
2	50396	10.11	0
2	50953	10.21	0
2	51510	10.31	0
2	52067	10.41	0
2	52624	10.51	0
2	53181	10.61	0
2	53738	10.71	0
2	54295	10.81	0
2	54852	10.91	0
2	55417	11.01	0
2	55974	11.11	0
2	56531	11.21	0
2	57088	11.31	0
2	57645	11.41	0
2	58202	11.51	0
2	58759	11.61	0
2	59316	11.71	0
2	59873	11.81	0
2	60430	11.91	0
2	60995	12.01	0
2	61552	12.11	0
2	62109	12.21	0
2	62666	12.31	0
2	63223	12.41	0
2	63780	12.51	0
2	64337	12.61	0
2	64894	12.71	0
2	65451	12.81	0
2	66008	12.91	0
2	66573	13.01	0
2	67130	13.11	0
2	67687	13.21	0
2	68244	13.31	0
2	68801	13.41	0
2	69358	13.51	0
2	69915	13.61	0
2	70472	13.71	0
2	71029	13.81	0
2	71586	13.91	0
2	72151	14.01	0
2	72708	14.11	0
2	73265	14.21	0
2	73822	14.31	0
2	74379	14.41	0
2	74936	14.51	0
2	75493	14.61	0
2	76050	14.71	0
2	76607	14.81	0
2	77164	14.91	0
2	77729	15.01	0
2	78286	15.11	0
2	78843	15.21	0
2	79400	15.31	0
2	79957	15.41	0
2	80514	15.51	0
2	81071	15.61	0
2	81628	15.71	0
2	82185	15.81	0
2	82742	15.91	0
2	83307	16.01	0
2	83864	16.11	0
2	84421	16.21	0
2	84978	16.31	0
2	85535	16.41	0
2	86092	16.51	0
2	86649	16.61	0
2	87206	16.71	0
2	87763	16.81	0
2	88320	16.91	0
2	88885	17.01	0
2	89442	17.11	0
2	89999	17.21	0
2	90556	17.31	0
2	91113	17.41	0
2	91670	17.51	0
2	92227	17.61	0
2	92784	17.71	0
2	93341	17.81	0
2	93898	17.91	0
2	94463	18.01	0
2	95020	18.11	0
2	95577	18.21	0
2	96134	18.31	0
2	96691	18.41	0
2	97248	18.51	0
2	97805	18.61	0
2	98362	18.71	0
2	98919	18.81	0
2	99476	18.91	0
2	100041	19.01	0
2	100598	19.11	0
2	101155	19.21	0
2	101712	19.31	0
2	102269	19.41	0
2	102826	19.51	0
2	103383	19.61	0
2	103940	19.71	0
2	104497	19.81	0
2	105054	19.91	0
2	105619	20.01	0
2	106176	20.11	0
2	106733	20.21	0
2	107290	20.31	0
2	107847	20.41	0
2	108404	20.51	0
2	108961	20.61	0
2	109518	20.71	0
2	110075	20.81	0
2	110632	20.91	0
2	111197	21.01	0
2	111754	21.11	0
2	112311	21.21	0
2	112868	21.31	0
2	113425	21.41	0
2	113982	21.51	0
2	114539	21.61	0
2	115096	21.71	0
2	115653	21.81	0
2	116210	21.91	0
2	116775	22.01	0
2	117332	22.11	0
2	117889	22.21	0
2	118446	22.31	0
2	119003	22.41	0
2	119560	22.51	0
2	120117	22.61	0
2	120674	22.71	0
2	121231	22.81	0
2	121788	22.91	0
2	122353	23.01	0
2	122910	23.11	0
2	123467	23.21	0
2	124024	23.31	0
2	124581	23.41	0
2	125138	23.51	0
2	125695	23.61	0
2	126252	23.71	0
2	126809	23.81	0
2	127366	23.91	0
2	127931	24.01	0
2	128488	24.11	0
2	129045	24.21	0
2	129602	24.31	0
2	130159	24.41	0
2	130716	24.51	0
2	131273	24.61	0
2	131830	24.71	0
2	132387	24.81	0
2	132944	24.91	0
2	133509	25.01	0
2	134066	25.11	0
2	134623	25.21	0
2	135180	25.31	0
2	135737	25.41	0
2	136294	25.51	0
2	136851	25.61	0
2	137408	25.71	0
2	137965	25.81	0
2	138522	25.91	0
2	139087	26.01	0
2	139644	26.11	0
2	140201	26.21	0
2	140758	26.31	0
2	141315	26.41	0
2	141872	26.51	0
2	142429	26.61	0
2	142986	26.71	0
2	143543	26.81	0
2	144100	26.91	0
2	144665	27.01	0
2	145222	27.11	0
2	145779	27.21	0
2	146336	27.31	0
2	146893	27.41	0
2	147450	27.51	0
2	148007	27.61	0
2	148564	27.71	0
2	149121	27.81	0
2	149678	27.91	0
2	150243	28.01	0
2	150800	28.11	0
2	151357	28.21	0
2	151914	28.31	0
2	152471	28.41	0
2	153028	28.51	0
2	153585	28.61	0
2	154142	28.71	0
2	154699	28.81	0
2	155256	28.91	0
2	155821	29.01	0
2	156378	29.11	0
2	156935	29.21	0
2	157492	29.31	0
2	158049	29.41	0
2	158606	29.51	0
2	159163	29.61	0
2	159720	29.71	0
2	160277	29.81	0
2	160834	29.91	0
2	161399	30.01	0
2	161956	30.11	0
2	162513	30.21	0
2	163070	30.31	0
2	163627	30.41	0
2	164184	30.51	0
2	164741	30.61	0
2	165298	30.71	0
2	165855	30.81	0
2	166412	30.91	0
2	166977	31.01	0
2	167534	31.11	0
2	168091	31.21	0
2	168648	31.31	0
2	169205	31.41	0
2	169762	31.51	0
2	170319	31.61	0
2	170876	31.71	0
2	171433	31.81	0
2	171990	31.91	0
2	172555	32.01	0
2	173112	32.11	0
2	173669	32.21	0
2	174226	32.31	0
2	174783	32.41	0
2	175340	32.51	0
2	175897	32.61	0
2	176454	32.71	0
2	177011	32.81	0
2	177568	32.91	0
2	178133	33.01	0
10	5168	2	0
10	10736	3	0
10	16304	4	0
10	21873	5	0
10	27450	6	0
10	33028	7	0
10	38606	8	0
10	44184	9	0
10	49762	10	0
10	55340	11	0
10	60918	12	0
10	66496	13	0
10	72074	14	0
10	77652	15	0
10	83230	16	0
10	88808	17	0
10	94386	18	0
10	99964	19	0
10	105542	20	0
10	111120	21	0
10	116698	22	0
10	122276	23	0
10	127854	24	0
10	133432	25	0
10	139010	26	0
10	144588	27	0
10	150166	28	0
10	155744	29	0
10	161322	30	0
10	166900	31	0
10	172478	32	0
10	178056	33	0
9	5168	2	0.023297
9	10736	3	0.02625
9	16304	4	0.02625
9	21873	5	0.02625
9	27450	6	0.02625
9	33028	7	0.02625
9	38606	8	0.02625
9	44184	9	0.02625
9	49762	10	0.02625
9	55340	11	0.02625
9	60918	12	0.02625
9	66496	13	0.02625
9	72074	14	0.02625
9	77652	15	0.02625
9	83230	16	0.02625
9	88808	17	0.02625
9	94386	18	0.02625
9	99964	19	0.02625
9	105542	20	0.02625
9	111120	21	0.02625
9	116698	22	0.02625
9	122276	23	0.02625
9	127854	24	0.02625
9	133432	25	0.02625
9	139010	26	0.02625
9	144588	27	0.02625
9	150166	28	0.02625
9	155744	29	0.02625
9	161322	30	0.02625
9	166900	31	0.02625
9	172478	32	0.02625
9	178056	33	0.02625
8	5168	2	0
8	10736	3	0
8	16304	4	0
8	21873	5	0
8	27450	6	0
8	33028	7	0
8	38606	8	0
8	44184	9	0
8	49762	10	0
8	55340	11	0
8	60918	12	0
8	66496	13	0
8	72074	14	0
8	77652	15	0
8	83230	16	0
8	88808	17	0
8	94386	18	0
8	99964	19	0
8	105542	20	0
8	111120	21	0
8	116698	22	0
8	122276	23	0
8	127854	24	0
8	133432	25	0
8	139010	26	0
8	144588	27	0
8	150166	28	0
8	155744	29	0
8	161322	30	0
8	166900	31	0
8	172478	32	0
8	178056	33	0
29	233	1.11	0
29	789	1.21	-1.1070656307766e-06
29	1345	1.31	-1.0781063380705e-06
29	1901	1.41	-1.03365290272e-06
29	2457	1.51	-9.7736936197634e-07
29	3013	1.61	-9.1247101437375e-07
29	3569	1.71	-8.4174715993868e-07
29	4125	1.81	-7.6758766681451e-07
29	4681	1.91	-6.92011949468e-07
29	5245	2.01	-6.1669945097265e-07
29	5801	2.11	-5.4302041945675e-07
29	6357	2.21	-4.7206715663606e-07
29	6913	2.31	-4.0468431933505e-07
29	7469	2.41	-3.4149824415408e-07
29	8025	2.51	-2.829450909303e-07
29	8581	2.61	-2.2929727833798e-07
29	9137	2.71	-1.8068796322268e-07
29	9693	2.81	-1.3713384078073e-07
29	10249	2.91	-9.8555898375707e-08
29	10813	3.01	-6.4797942229688e-08
29	11369	3.11	-3.5643435012389e-08
29	11925	3.21	-1.0830236192305e-08
29	12481	3.31	9.9365033179311e-09
29	13037	3.41	2.6972957982707e-08
29	13593	3.51	4.0607152982375e-08
29	14149	3.61	5.1170932238165e-08
29	14705	3.71	5.8993156528686e-08
29	15261	3.81	6.4394333776363e-08
29	15817	3.91	6.7682300368688e-08
29	16381	4.01	6.9149037358329e-08
29	16937	4.11	6.9068031223196e-08
29	17493	4.21	6.7692753873416e-08
29	18049	4.31	6.5255665901987e-08
29	18605	4.41	6.1967743079094e-08
29	19161	4.51	5.80185425747e-08
29	19717	4.61	5.3576549703394e-08
29	20273	4.71	4.8789985669373e-08
29	20829	4.81	4.3787642596271e-08
29	21385	4.91	3.8680110492351e-08
29	21950	5.01	3.3560933161425e-08
29	22507	5.11	2.8507965623703e-08
29	23064	5.21	0.3473399264286
29	23621	5.31	0.68310172289411
29	24178	5.41	0.9969868808583
29	24735	5.51	1.2801412054044
29	25292	5.61	1.509938208605
29	25849	5.71	1.5126870522067
29	26406	5.81	1.5149569008906
29	26963	5.91	1.5168232758835
29	27528	6.01	1.518349357102
29	28085	6.11	1.5195884709445
29	28642	6.21	1.5205856483267
29	29199	6.31	1.5213789322128
29	29756	6.41	1.5220004755899
29	30313	6.51	1.5224774640401
29	30870	6.61	1.4326306541921
29	31427	6.71	1.1674154502827
29	31984	6.81	0.86641326489366
29	32541	6.91	0.53696345217527
29	33106	7.01	0.18665231609686
29	33663	7.11	-0.17681327700959
29	34220	7.21	-0.54572921224074
29	34777	7.31	-0.91251328726067
29	35334	7.41	-1.2698191249276
29	35891	7.51	-1.5007553758481
29	36448	7.61	-1.5047180829295
29	37005	7.71	-1.508032293308
29	37562	7.81	-1.5107991525788
29	38119	7.91	-1.5131038646745
29	38684	8.01	-1.5150182466762
29	39241	8.11	-1.5166028672605
29	39798	8.21	-1.5179088377145
29	40355	8.31	-1.5189793128748
29	40912	8.41	-1.5198507497403
29	41469	8.51	-1.5205539635301
29	42026	8.61	-1.5211150143309
29	42583	8.71	-1.5215559519715
29	43140	8.81	-1.5218954421817
29	43697	8.91	-1.5221492932819
29	44262	9.01	-1.5223308994798
29	44819	9.11	-1.5224516142094
29	45376	9.21	-1.5225210647459
29	45933	9.31	-1.5225474174966
29	46490	9.41	-1.5225376018363
29	47047	9.51	-1.5224974867195
29	47604	9.61	-1.1130399807196
29	48161	9.71	-0.6781856239383
29	48718	9.81	-0.23540742645091
29	49275	9.91	0.20477972923211
29	49840	10.01	0.63265016738831
29	50397	10.11	1.0393362893812
29	50954	10.21	1.4168871822094
29	51511	10.31	1.503566987371
29	52068	10.41	1.5075222374604
29	52625	10.51	1.5108114542676
29	53182	10.61	1.5135389437183
29	53739	10.71	1.5157926024176
29	54296	10.81	1.5176465390543
29	54853	10.91	1.5191632700022
29	55418	11.01	1.5203955593946
29	55975	11.11	1.5213879621789
29	56532	11.21	1.5221781188875
29	57089	11.31	1.5227978427399
29	57646	11.41	1.5232740329469
29	58203	11.51	1.5236294424738
29	58760	11.61	1.5238833238535
29	59317	11.71	1.5240519727521
29	59874	11.81	1.5241491857569
29	60431	11.91	1.4626999577167
29	60996	12.01	1.0805371118782
29	61553	12.11	0.6749646378334
29	62110	12.21	0.25628396828076
29	62667	12.31	-0.16565490730592
29	63224	12.41	-0.58154878117484
29	63781	12.51	-0.98272798926867
29	64338	12.61	-1.3612342961173
29	64895	12.71	-1.5007710420754
29	65452	12.81	-1.5048042463769
29	66009	12.91	-1.5081733666056
29	66574	13.01	-1.5109820737605
29	67131	13.11	-1.5133177109065
29	67688	13.21	-1.5152539069954
29	68245	13.31	-1.5168527651897
29	68802	13.41	-1.5181666960598
29	69359	13.51	-1.5192399542163
29	69916	13.61	-1.5201099271417
29	70473	13.71	-1.520808216847
29	71030	13.81	-1.5213615482135
29	71587	13.91	-1.5217925322639
29	72152	14.01	-1.5221203079268
29	72709	14.11	-1.5223610819726
29	73266	14.21	-1.5225285835572
29	73823	14.31	-1.5226344471152
29	74380	14.41	-1.5226885350944
29	74937	14.51	-1.2364580897011
29	75494	14.61	-0.82668059670667
29	76051	14.71	-0.40181671009085
29	76608	14.81	0.027816975931711
29	77165	14.91	0.45250734747425
29	77730	15.01	0.8632287033726
29	78287	15.11	1.251717351968
29	78844	15.21	1.5009055297612
29	79401	15.31	1.5051499093424
29	79958	15.41	1.5086883048644
29	80515	15.51	1.5116312379969
29	81072	15.61	1.5140718102023
29	81629	15.71	1.516088492131
29	82186	15.81	1.5177474588761
29	82743	15.91	1.5191045462024
29	83308	16.01	1.5202068902591
29	83865	16.11	1.5210943028278
29	84422	16.21	1.5218004254668
29	84979	16.31	1.522353698694
29	85536	16.41	1.5227781763532
29	86093	16.51	1.523094210314
29	86650	16.61	1.5233190265078
29	87207	16.71	1.5234672098424
29	87764	16.81	1.5235511126597
29	88321	16.91	1.5235811988807
29	88886	17.01	1.1819108143038
29	89443	17.11	0.77331271050736
29	90000	17.21	0.35038004837776
29	90557	17.31	-0.076740907369659
29	91114	17.41	-0.49848713508573
29	91671	17.51	-0.90596374066874
29	92228	17.61	-1.2910196801494
29	92785	17.71	-1.5008096443968
29	93342	17.81	-1.5049982705407
29	93899	17.91	-1.5084930018985
29	94464	18.01	-1.5114023154322
29	95021	18.11	-1.5138176015909
29	95578	18.21	-1.5158158989672
29	96135	18.31	-1.5174621839108
29	96692	18.41	-1.5188112886789
29	97249	18.51	-1.5199095093657
29	97806	18.61	-1.520795954605
29	98363	18.71	-1.5215036775328
29	98920	18.81	-1.5220606264242
29	99477	18.91	-1.522490443545
29	100042	19.01	-1.5228131368653
29	100599	19.11	-1.5230456452206
29	101156	19.21	-1.5232023141124
29	101713	19.31	-1.5232952965262
29	102270	19.41	-1.5233348907879
29	102827	19.51	-1.2021698341653
29	103384	19.61	-0.79313958405123
29	103941	19.71	-0.36949574863252
29	104498	19.81	0.058552296318681
29	105055	19.91	0.48138591100261
29	105620	20.01	0.89006172396057
29	106177	20.11	1.2763869382087
29	106734	20.21	1.5007603422798
29	107291	20.31	1.5049702746952
29	107848	20.41	1.5084819296337
29	108405	20.51	1.5114045248097
29	108962	20.61	1.5138300702106
29	109519	20.71	1.5158361226925
29	110076	20.81	1.5174880922105
29	110633	20.91	1.5188411738255
29	111198	21.01	1.5199419671934
29	111755	21.11	1.5208298349168
29	112312	21.21	1.5215380425661
29	112869	21.31	1.5220947160509
29	113426	21.41	1.5225236461014
29	113983	21.51	1.5228449646929
29	114540	21.61	1.5230757141483
29	115097	21.71	1.523230326241
29	115654	21.81	1.5233210257784
29	116211	21.91	1.5233581707786
29	116776	22.01	1.1945961653358
29	117333	22.11	0.78572649925097
29	117890	22.21	0.36234675504053
29	118447	22.31	-0.065357088742732
29	119004	22.41	-0.48778701365024
29	119561	22.51	-0.89601762376338
29	120118	22.61	-1.2818716058083
29	120675	22.71	-1.5008366743363
29	121232	22.81	-1.505037680386
29	121789	22.91	-1.5085420688223
29	122354	23.01	-1.5114587795324
29	122911	23.11	-1.5138795900275
29	123468	23.21	-1.5158818625919
29	124025	23.31	-1.5175308443039
29	124582	23.41	-1.5188815938638
29	125139	23.51	-1.5199805967617
29	125696	23.61	-1.5208671200206
29	126253	23.71	-1.5215743492031
29	126810	23.81	-1.5221303432625
29	127367	23.91	-1.5225588369171
29	127932	24.01	-1.5228799153107
29	128489	24.11	-1.5231105816385
29	129046	24.21	-1.5232652350133
29	129603	24.31	-1.5233560730124
29	130160	24.41	-1.5233934309834
29	130717	24.51	-1.19744977943
29	131274	24.61	-0.78851987122018
29	131831	24.71	-0.36504148386975
29	132388	24.81	0.062790721921903
29	132945	24.91	0.48537107559385
29	133510	25.01	0.89376751089764
29	134067	25.11	1.2797969688805
29	134624	25.21	1.5007696059464
29	135181	25.31	1.5049745221726
29	135738	25.41	1.5084821952845
29	136295	25.51	1.5114016684735
29	136852	25.61	1.5138248057141
29	137409	25.71	1.5158290416779
29	137966	25.81	1.5174796840595
29	138523	25.91	1.5188318423277
29	139088	26.01	1.5199320444973
29	139645	26.11	1.5208195932127
29	140202	26.21	1.5215277038733
29	140759	26.31	1.5220844604208
29	141316	26.41	1.5225136184959
29	141873	26.51	1.5228352807537
[...]
123	84691	16.262211197989	0.099998660029
123	85248	16.362209858152	0.099998660163
123	85805	16.462221518457	0.100011660305
123	86362	16.562220178908	0.099998660451
123	86919	16.662218839512	0.099998660604
123	87476	16.762217500276	0.099998660764
123	88033	16.862216161202	0.099998660926
123	88590	16.962214822298	0.099998661096
123	89155	17.062213483563	0.099998661265
123	89712	17.162212144998	0.099998661435
123	90269	17.262210806592	0.099998661594
123	90826	17.362222468327	0.100011661735
123	91383	17.462221130187	0.09999866186
123	91940	17.562219792143	0.099998661956
123	92497	17.662218454168	0.099998662025
123	93054	17.762217116227	0.099998662059
123	93611	17.862215778291	0.099998662064
123	94168	17.962214440336	0.099998662045
123	94733	18.062213102333	0.099998661997
123	95290	18.162211764269	0.099998661936
123	95847	18.262210426124	0.099998661855
123	96404	18.362222087885	0.100011661761
123	96961	18.462220749541	0.099998661656
123	97518	18.562219411081	0.09999866154
123	98075	18.662218072497	0.099998661416
123	98632	18.762216733779	0.099998661282
123	99189	18.862215394924	0.099998661145
123	99746	18.962214055922	0.099998660998
123	100311	19.062212716766	0.099998660844
123	100868	19.162211377451	0.099998660685
123	101425	19.262210037973	0.099998660522
123	101982	19.362221698325	0.100011660352
123	102539	19.462220358504	0.099998660179
123	103096	19.562219018506	0.099998660002
123	103653	19.662217678335	0.099998659829
123	104210	19.762216338001	0.099998659666
123	104767	19.862214997516	0.099998659515
123	105324	19.962213656902	0.099998659386
123	105889	20.062212316187	0.099998659285
123	106446	20.162210975398	0.099998659211
123	107003	20.262209634569	0.099998659171
123	107560	20.362221293732	0.100011659163
123	108117	20.462219952909	0.099998659177
123	108674	20.562218612124	0.099998659215
123	109231	20.662217271401	0.099998659277
123	109788	20.762215930752	0.099998659351
123	110345	20.862214590191	0.099998659439
123	110902	20.962213249731	0.09999865954
123	111467	21.062211909383	0.099998659652
123	112024	21.162210569157	0.099998659774
123	112581	21.262222229058	0.100011659901
123	113138	21.362220889097	0.099998660039
123	113695	21.462219549279	0.099998660182
123	114252	21.562218209609	0.09999866033
123	114809	21.662216870096	0.099998660487
123	115366	21.762215530742	0.099998660646
123	115923	21.862214191555	0.099998660813
123	116480	21.962212852538	0.099998660983
123	117045	22.062211513693	0.099998661155
123	117602	22.16221017502	0.099998661327
123	118159	22.262221836507	0.100011661487
123	118716	22.362220498142	0.099998661635
123	119273	22.4622191599	0.099998661758
123	119830	22.562217821757	0.099998661857
123	120387	22.662216483685	0.099998661928
123	120944	22.762215145648	0.099998661963
123	121501	22.86221380762	0.099998661972
123	122058	22.962212469573	0.099998661953
123	122623	23.062211131485	0.099998661912
123	123180	23.162209793333	0.099998661848
123	123737	23.262221455103	0.10001166177
123	124294	23.362220116782	0.099998661679
123	124851	23.462218778357	0.099998661575
123	125408	23.562217439818	0.099998661461
123	125965	23.662216101155	0.099998661337
123	126522	23.762214762363	0.099998661208
123	127079	23.862213423431	0.099998661068
123	127636	23.962212084353	0.099998660922
123	128201	24.062210745124	0.099998660771
123	128758	24.162222405737	0.100011660613
123	129315	24.262221066188	0.099998660451
123	129872	24.36221972647	0.099998660282
123	130429	24.462218386581	0.099998660111
123	130986	24.562217046518	0.099998659937
123	131543	24.66221570628	0.099998659762
123	132100	24.76221436588	0.0999986596
123	132657	24.862213025331	0.099998659451
123	133214	24.962211684655	0.099998659324
123	133779	25.062210343878	0.099998659223
123	134336	25.162222003031	0.100011659153
123	134893	25.262220662143	0.099998659112
123	135450	25.362219321246	0.099998659103
123	136007	25.462217980367	0.099998659121
123	136564	25.562216639528	0.099998659161
123	137121	25.662215298748	0.09999865922
123	137678	25.762213958045	0.099998659297
123	138235	25.862212617433	0.099998659388
123	138792	25.962211276923	0.09999865949
123	139357	26.062209936523	0.0999986596
123	139914	26.162221596244	0.100011659721
123	140471	26.262220256097	0.099998659853
123	141028	26.362218916086	0.099998659989
123	141585	26.462217576219	0.099998660133
123	142142	26.562216236504	0.099998660285
123	142699	26.662214896943	0.099998660439
123	143256	26.762213557543	0.0999986606
123	143813	26.862212218311	0.099998660768
123	144370	26.962210879248	0.099998660937
123	144935	27.062222540359	0.100011661111
123	145492	27.162221201641	0.099998661282
123	146049	27.262219863087	0.099998661446
123	146606	27.362218524677	0.09999866159
123	147163	27.462217186394	0.099998661717
123	147720	27.56221584821	0.099998661816
123	148277	27.662214510098	0.099998661888
123	148834	27.762213172023	0.099998661925
123	149391	27.862211833956	0.099998661933
123	149948	27.96221049587	0.099998661914
123	150513	28.062222157743	0.100011661873
123	151070	28.162220819553	0.09999866181
123	151627	28.262219481288	0.099998661735
123	152184	28.36221814293	0.099998661642
123	152741	28.462216804469	0.099998661539
123	153298	28.562215465895	0.099998661426
123	153855	28.662214127198	0.099998661303
123	154412	28.762212788372	0.099998661174
123	154969	28.862211449407	0.099998661035
123	155526	28.962210110296	0.099998660889
123	156091	29.062221771033	0.100011660737
123	156648	29.162220431613	0.09999866058
123	157205	29.262219092031	0.099998660418
123	157762	29.362217752282	0.099998660251
123	158319	29.46221641236	0.099998660078
123	158876	29.562215072264	0.099998659904
123	159433	29.662213731996	0.099998659732
123	159990	29.762212391566	0.09999865957
123	160547	29.862211050988	0.099998659422
123	161104	29.962209710283	0.099998659295
123	161669	30.062221369477	0.100011659194
123	162226	30.162220028603	0.099998659126
123	162783	30.262218687716	0.099998659113
123	163340	30.362217346914	0.099998659198
123	163897	30.462216006329	0.099998659415
123	164454	30.562214666125	0.099998659796
123	165011	30.662213326485	0.09999866036
123	165568	30.762211987609	0.099998661124
123	166125	30.862210649714	0.099998662105
123	166682	30.962222313026	0.100011663312
123	167247	31.06222097778	0.099998664754
123	167804	31.162219644219	0.099998666439
123	168361	31.262218312595	0.099998668376
123	168918	31.362216983152	0.099998670557
123	169475	31.462215656146	0.099998672994
123	170032	31.562214331831	0.099998675685
123	170589	31.662213010462	0.099998678631
123	171146	31.762211692292	0.09999868183
123	171703	31.862210377575	0.099998685283
123	172260	31.962222066564	0.100011688989
123	172825	32.062220759501	0.099998692937
123	173382	32.16221945663	0.099998697129
123	173939	32.262218158187	0.099998701557
123	174496	32.362216864391	0.099998706204
123	175053	32.462215575458	0.099998711067
123	175610	32.562214291595	0.099998716137
123	176167	32.662213013003	0.099998721408
123	176724	32.762211739878	0.099998726875
123	177281	32.862210472413	0.099998732535
123	177838	32.962222210801	0.100011738388
124	1244	1.297503110771	0.099998660458
124	1800	1.397501771229	0.099998660458
124	2356	1.497513431687	0.100011660458
124	2912	1.597512092145	0.099998660458
124	3468	1.697510752603	0.099998660458
124	4024	1.797509413061	0.099998660458
124	4580	1.897508073519	0.099998660458
124	5136	1.997506733977	0.099998660458
124	5700	2.097505394435	0.099998660458
124	6256	2.197504054893	0.099998660458
124	6812	2.297502715351	0.099998660458
124	7368	2.397501375809	0.099998660458
124	7924	2.497513036267	0.100011660458
124	8480	2.597511696725	0.099998660458
124	9036	2.697510357183	0.099998660458
124	9592	2.797509017641	0.099998660458
124	10148	2.897507678099	0.099998660458
124	10704	2.997506338557	0.099998660458
124	11268	3.097504999015	0.099998660458
124	11824	3.197503659473	0.099998660458
124	12380	3.297502319931	0.099998660458
124	12936	3.397513980389	0.100011660458
124	13492	3.497512640847	0.099998660458
124	14048	3.597511301305	0.099998660458
124	14604	3.697509961763	0.099998660458
124	15160	3.797508622221	0.099998660458
124	15716	3.897507282679	0.099998660458
124	16272	3.997505943137	0.099998660458
124	16836	4.097504603595	0.099998660458
124	17392	4.197503264053	0.099998660458
124	17948	4.297501924511	0.099998660458
124	18504	4.397513584969	0.100011660458
124	19060	4.497512245427	0.099998660458
124	19616	4.597510905885	0.099998660458
124	20172	4.697509566343	0.099998660458
124	20728	4.797508226801	0.099998660458
124	21284	4.897506887259	0.099998660458
124	21840	4.997505547717	0.099998660458
124	22405	5.097504208175	0.099998660458
124	22962	5.197502868634	0.099998660459
124	23519	5.297501529095	0.099998660461
124	24076	5.397513189566	0.100011660471
124	24627	5.497511850061	0.099998660495
124	25184	5.597510510596	0.099998660535
124	25741	5.697509171191	0.099998660595
124	26298	5.797507831869	0.099998660678
124	26855	5.897506492645	0.099998660776
124	27412	5.997505153539	0.099998660894
124	27977	6.09750381456	0.099998661021
124	28534	6.19750247572	0.09999866116
124	29091	6.297514137034	0.100011661314
124	29648	6.397512798505	0.099998661471
124	30205	6.497511460142	0.099998661637
124	30762	6.597510121954	0.099998661812
124	31319	6.697508783943	0.099998661989
124	31876	6.797507446114	0.099998662171
124	32433	6.897506108464	0.09999866235
124	32990	6.997504770985	0.099998662521
124	33555	7.097503433665	0.09999866268
124	34112	7.197502096487	0.099998662822
124	34669	7.297513759429	0.100011662942
124	35226	7.397512422467	0.099998663038
124	35783	7.497511085574	0.099998663107
124	36340	7.597509748717	0.099998663143
124	36897	7.697508411869	0.099998663152
124	37454	7.797507075003	0.099998663134
124	38011	7.897505738098	0.099998663095
124	38568	7.997504401133	0.099998663035
124	39133	8.097503064096	0.099998662963
124	39690	8.197501726971	0.099998662875
124	40247	8.297513389748	0.100011662777
124	40804	8.397512052417	0.099998662669
124	41361	8.497510714966	0.099998662549
124	41918	8.597509377389	0.099998662423
124	42475	8.697508039677	0.099998662288
124	43032	8.797506701825	0.099998662148
124	43589	8.897505363827	0.099998662002
124	44146	8.997504025675	0.099998661848
124	44711	9.097502687364	0.099998661689
124	45268	9.197514348889	0.100011661525
124	45825	9.297513010245	0.099998661356
124	46382	9.397511671425	0.09999866118
124	46939	9.497510332427	0.099998661002
124	47496	9.597508993249	0.099998660822
124	48053	9.697507653885	0.099998660636
124	48610	9.797506314341	0.099998660456
124	49173	9.897504974629	0.099998660288
124	49730	9.997503634768	0.099998660139
124	50295	10.09750229478	0.099998660012
124	50852	10.197513954697	0.100011659917
124	51409	10.297512614548	0.099998659851
124	51966	10.397511274366	0.099998659818
124	52523	10.49750993418	0.099998659814
124	53080	10.597508594016	0.099998659836
124	53637	10.697507253894	0.099998659878
124	54194	10.797505913835	0.099998659941
124	54751	10.897504573852	0.099998660017
124	55308	10.997503233959	0.099998660107
124	55873	11.097501894167	0.099998660208
124	56430	11.197513554488	0.100011660321
124	56987	11.297512214927	0.099998660439
124	57544	11.397510875496	0.099998660569
124	58101	11.4975095362	0.099998660704
124	58658	11.597508197046	0.099998660846
124	59215	11.697506858041	0.099998660995
124	59772	11.797505519189	0.099998661148
124	60329	11.897504180496	0.099998661307
124	60880	11.997502841968	0.099998661472
124	61445	12.097501503606	0.099998661638
124	62002	12.197513165404	0.100011661798
124	62559	12.297511827353	0.099998661949
124	63116	12.397510489438	0.099998662085
124	63673	12.497509151633	0.099998662195
124	64230	12.59750781391	0.099998662277
124	64787	12.69750647624	0.09999866233
124	65344	12.797505138592	0.099998662352
124	65901	12.897503800938	0.099998662346
124	66458	12.997502463251	0.099998662313
124	67023	13.097514125509	0.100011662258
124	67580	13.197512787696	0.099998662187
124	68137	13.297511449793	0.099998662097
124	68694	13.397510111793	0.099998662
124	69251	13.49750877368	0.099998661887
124	69808	13.597507435444	0.099998661764
124	70365	13.697506097079	0.099998661635
124	70922	13.797504758576	0.099998661497
124	71479	13.897503419927	0.099998661351
124	72036	13.997502081127	0.0999986612
124	72601	14.09751374217	0.100011661043
124	73158	14.197512403048	0.099998660878
124	73721	14.297511063759	0.099998660711
124	74278	14.397509724296	0.099998660537
124	74835	14.497508384656	0.09999866036
124	75392	14.597507044836	0.09999866018
124	75949	14.697505704837	0.099998660001
124	76506	14.797504364669	0.099998659832
124	77063	14.897503024348	0.099998659679
124	77620	14.997501683898	0.09999865955
124	78185	15.097513343341	0.100011659443
124	78742	15.197512002708	0.099998659367
124	79299	15.297510662032	0.099998659324
124	79856	15.397509321345	0.099998659313
124	80413	15.497507980672	0.099998659327
124	80970	15.597506640036	0.099998659364
124	81527	15.697505299458	0.099998659422
124	82084	15.797503958952	0.099998659494
124	82641	15.897502618533	0.099998659581
124	83198	15.997514278215	0.100011659682
124	83763	16.097512938005	0.09999865979
124	84320	16.197511597915	0.09999865991
124	84877	16.297510257952	0.099998660037
124	85434	16.397508918124	0.099998660172
124	85991	16.497507578439	0.099998660315
124	86548	16.597506238901	0.099998660462
124	87105	16.697504899518	0.099998660617
124	87662	16.797503560294	0.099998660776
124	88219	16.897502221235	0.099998660941
124	88776	16.997513882345	0.10001166111
124	89341	17.097512543627	0.099998661282
124	89898	17.197511205077	0.09999866145
124	90449	17.297509866685	0.099998661608
124	91006	17.397508528438	0.099998661753
124	91563	17.497507190311	0.099998661873
124	92120	17.597505852278	0.099998661967
124	92677	17.697504514313	0.099998662035
124	93234	17.797503176378	0.099998662065
124	93791	17.897501838448	0.09999866207
124	94348	17.997513500493	0.100011662045
124	94913	18.097512162491	0.099998661998
124	95470	18.197510824425	0.099998661934
124	96027	18.297509486277	0.099998661852
124	96584	18.397508148033	0.099998661756
124	97141	18.497506809684	0.099998661651
124	97698	18.597505471218	0.099998661534
124	98255	18.697504132625	0.099998661407
124	98812	18.797502793901	0.099998661276
124	99369	18.897501455034	0.099998661133
124	99926	18.997513116022	0.100011660988
124	100491	19.097511776853	0.099998660831
124	101054	19.197510437525	0.099998660672
124	101611	19.297509098035	0.09999866051
124	102168	19.397507758371	0.099998660336
124	102725	19.497506418535	0.099998660164
124	103282	19.597505078522	0.099998659987
124	103839	19.697503738335	0.099998659813
124	104396	19.797502397984	0.099998659649
124	104953	19.897514057484	0.1000116595
124	105510	19.997512716856	0.099998659372
124	106075	20.097511376129	0.099998659273
124	106632	20.19751003533	0.099998659201
124	107189	20.297508694495	0.099998659165
124	107746	20.397507353653	0.099998659158
124	108303	20.497506012827	0.099998659174
124	108860	20.597504672042	0.099998659215
124	109417	20.69750333132	0.099998659278
124	109974	20.797501990674	0.099998659354
124	110531	20.897513650118	0.100011659444
124	111088	20.997512309663	0.099998659545
124	111653	21.097510969322	0.099998659659
124	112210	21.197509629103	0.099998659781
124	112767	21.297508289014	0.099998659911
124	113324	21.397506949062	0.099998660048
124	113881	21.497505609254	0.099998660192
124	114438	21.597504269596	0.099998660342
124	114995	21.697502930095	0.099998660499
124	115552	21.797501590755	0.09999866066
124	116109	21.897513251582	0.100011660827
124	116666	21.99751191258	0.099998660998
124	117231	22.097510573752	0.099998661172
124	117782	22.197509235094	0.099998661342
124	118339	22.297507896599	0.099998661505
124	118896	22.397506558249	0.09999866165
124	119453	22.497505220021	0.099998661772
124	120010	22.597503881891	0.09999866187
124	120567	22.697502543827	0.099998661936
124	121124	22.797514205798	0.100011661971
124	121681	22.897512867774	0.099998661976
124	122238	22.99751152973	0.099998661956
124	122803	23.097510191641	0.099998661911
124	123360	23.197508853488	0.099998661847
124	123917	23.297507515256	0.099998661768
124	124474	23.39750617693	0.099998661674
124	125031	23.497504838501	0.099998661571
124	125588	23.597503499954	0.099998661453
124	126145	23.697502161284	0.09999866133
124	126702	23.797513822483	0.100011661199
124	127259	23.897512483542	0.099998661059
124	127816	23.997511144454	0.099998660912
124	128381	24.097509805212	0.099998660758
124	128938	24.197508465812	0.0999986606
124	129495	24.29750712625	0.099998660438
124	130058	24.397505786519	0.099998660269
124	130615	24.497504446615	0.099998660096
124	131172	24.597503106535	0.09999865992
124	131729	24.697501766282	0.099998659747
124	132286	24.797513425865	0.100011659583
124	132843	24.897512085301	0.099998659436
124	133400	24.997510744611	0.09999865931
124	133965	25.097509403822	0.099998659211
124	134522	25.197508062966	0.099998659144
124	135079	25.29750672207	0.099998659104
124	135636	25.39750538117	0.0999986591
124	136193	25.497504040288	0.099998659118
124	136750	25.597502699449	0.099998659161
124	137307	25.69751435867	0.100011659221
124	137864	25.79751301797	0.0999986593
124	138421	25.897511677363	0.099998659393
124	138978	25.997510336857	0.099998659494
124	139543	26.097508996464	0.099998659607
124	140100	26.197507656194	0.09999865973
124	140657	26.297506316054	0.09999865986
124	141214	26.397504976053	0.099998659999
124	141771	26.497503636198	0.099998660145
124	142328	26.597502296493	0.099998660295
124	142885	26.697513956944	0.100011660451
124	143442	26.797512617559	0.099998660615
124	143999	26.89751127834	0.099998660781
124	144556	26.997509939293	0.099998660953
124	145115	27.09750860042	0.099998661127
124	145672	27.197507261719	0.099998661299
124	146229	27.29750592318	0.099998661461
124	146786	27.397504584786	0.099998661606
124	147343	27.497503246516	0.09999866173
124	147900	27.597501908345	0.099998661829
124	148457	27.697513570243	0.100011661898
124	149014	27.797512232175	0.099998661932
124	149571	27.897510894113	0.099998661938
124	150128	27.997509556029	0.099998661916
124	150693	28.097508217901	0.099998661872
124	151250	28.197506879712	0.099998661811
124	151807	28.297505541443	0.099998661731
124	152364	28.397504203081	0.099998661638
124	152921	28.497502864615	0.099998661534
124	153478	28.597501526034	0.099998661419
124	154035	28.697513187331	0.100011661297
124	154592	28.797511848496	0.099998661165
124	155149	28.89751050952	0.099998661024
124	155706	28.997509170398	0.099998660878
124	156271	29.097507831123	0.099998660725
124	156828	29.197506491692	0.099998660569
124	157385	29.297505152096	0.099998660404
124	157942	29.397503812332	0.099998660236
124	158505	29.497502472396	0.099998660064
124	159062	29.597514132284	0.100011659888
124	159619	29.697512792	0.099998659716
124	160176	29.797511451553	0.099998659553
124	160733	29.89751011096	0.099998659407
124	161290	29.99750877024	0.09999865928
124	161855	30.097507429423	0.099998659183
124	162412	30.197506088539	0.099998659116
124	162963	30.297504747646	0.099998659107
124	163520	30.397503406841	0.099998659195
124	164077	30.497502066258	0.099998659417
124	164634	30.597513726058	0.1000116598
124	165191	30.697512386422	0.099998660364
124	165748	30.797511047554	0.099998661132
124	166305	30.897509709668	0.099998662114
124	166862	30.99750837299	0.099998663322
124	167427	31.097507037758	0.099998664768
124	167984	31.197505704212	0.099998666454
124	168541	31.297504372601	0.099998668389
124	169098	31.397503043176	0.099998670575
124	169655	31.497501716187	0.099998673011
124	170212	31.597513391891	0.100011675704
124	170769	31.697512070542	0.099998678651
124	171326	31.797510752395	0.099998681853
124	171883	31.897509437701	0.099998685306
124	172440	31.997508126711	0.09999868901
124	173005	32.097506819674	0.099998692963
124	173562	32.19750551683	0.099998697156
124	174119	32.29750421841	0.09999870158
124	174676	32.397502924639	0.099998706229
124	175233	32.497501635729	0.09999871109
124	175790	32.597513351887	0.100011716158
124	176347	32.697512073315	0.099998721428
124	176904	32.797510800207	0.099998726892
124	177461	32.897509532757	0.09999873255
124	178018	32.997508271157	0.0999987384
