version 2
run SinusoidalSpeedInjectionAttack-180-20170802-19:33:13-61402
attr CACCSpacing 5
attr attackAcc -30
attr attackPos 7
attr attackSpeed 100
attr attackStart 30
attr attacker 3
attr beaconInterval 0.1
attr configname SinusoidalSpeedInjectionAttack
attr controller 1
attr datetime 20170802-19:33:13
attr experiment SinusoidalSpeedInjectionAttack
attr fakeAcc "(3 == 4)"
attr fakePos "(3 == 2)"
attr fakeSpeed "(3 == 3)"
attr inifile omnetpp_180.ini
attr iterationvars "$attacker=3, $attackSpeed=100, $attackPos=7, $attackAcc=-30, $leaderSpeed=50, $controller=1, $CACCSpacing=5, $sController=\"CACC\", $attackStart=30, $0=5, $1=0, $nCars=8, $platoonSize=8, $nLanes=1, $beaconInterval=0.1, $priority=2, $packetSize=200, $ploegH=0.5, $leaderHeadway=1.2, $fakeSpeed=(3 == 3), $fakeAcc=(3 == 4), $fakePos=(3 == 2)"
attr iterationvarsf attacker=3,attackSpeed=100,attackPos=7,attackAcc=-30,leaderSpeed=50,controller=1,CACCSpacing=5,sController=CACC,attackStart=30,5,0,nCars=8,platoonSize=8,nLanes=1,beaconInterval=0.1,priority=2,packetSize=200,ploegH=0.5,leaderHeadway=1.2,fakeSpeed=(3_==_3),fakeAcc=(3_==_4),fakePos=(3_==_2)-
attr leaderHeadway 1.2
attr leaderSpeed 50
attr measurement "$attacker=3, $attackSpeed=100, $attackPos=7, $attackAcc=-30, $leaderSpeed=50, $controller=1, $CACCSpacing=5, $sController=\"CACC\", $attackStart=30, $0=5, $1=0, $nCars=8, $platoonSize=8, $nLanes=1, $beaconInterval=0.1, $priority=2, $packetSize=200, $ploegH=0.5, $leaderHeadway=1.2, $fakeSpeed=(3 == 3), $fakeAcc=(3 == 4), $fakePos=(3 == 2)"
attr nCars 8
attr nLanes 1
attr network scenario
attr packetSize 200
attr platoonSize 8
attr ploegH 0.5
attr priority 2
attr processid 61402
attr repetition 0
attr replication #0
attr resultdir results
attr runnumber 180
attr sController "\"CACC\""
attr seedset 0
param **.coreDebug false
param **.debug false
param **.headway 0.1s
param **.numberOfCars 8
param **.numberOfCarsPerPlatoon 8
param **.numberOfLanes 1
param **.numericController 1
param **.traffic.nCars 8
param **.traffic.nLanes 1
param **.traffic.platoonInsertDistance 5m
param **.traffic.platoonInsertHeadway 0s
param **.traffic.platoonInsertSpeed 50kmph
param **.traffic.platoonInsertTime "1 s"
param **.traffic.platoonLeaderHeadway 1.2s
param **.traffic.platoonSize 8
param **.traffic.platooningVType "\"vtypeauto\""
param **.traffic_type "\"PlatoonsTrafficManager\""
param *.**.nic.mac1609_4.bitrate 6Mbps
param *.**.nic.mac1609_4.txPower 100mW
param *.**.nic.mac1609_4.useServiceChannel false
param *.**.nic.phy80211p.analogueModels "xmldoc(\"config.xml\")"
param *.**.nic.phy80211p.decider "xmldoc(\"config.xml\")"
param *.**.nic.phy80211p.maxTXPower 100mW
param *.**.nic.phy80211p.sensitivity -94dBm
param *.**.nic.phy80211p.thermalNoise -95dBm
param *.**.nic.phy80211p.usePropagationDelay true
param *.**.nic.phy80211p.useThermalNoise true
param *.annotations.draw false
param *.connectionManager.alpha 2.0
param *.connectionManager.carrierFrequency "5.890e9 Hz"
param *.connectionManager.pMax 100mW
param *.connectionManager.sat -94dBm
param *.connectionManager.sendDirect true
param *.manager.autoShutdown true
param *.manager.commandLine "\"sumo --remote-port $port --seed $seed --configuration-file $configFile\""
param *.manager.configFile "\"./sumocfg/freeway.sumo.cfg\""
param *.manager.host "\"localhost\""
param *.manager.margin 25
param *.manager.moduleDisplayString "\"\""
param *.manager.moduleName "\"node\""
param *.manager.moduleType "\"Car\""
param *.manager.updateInterval 0.01s
param *.node[*].appl.attackStart 30s
param *.node[*].appl.attackerType 3
param *.node[*].appl.simulationDuration "60 s"
param *.node[*].appl_type "\"SimplePlatooningApp\""
param *.node[*].helper.nCars 8
param *.node[*].helper.nLanes 1
param *.node[*].helper.platoonSize 8
param *.node[*].helper_type "\"PositionHelper\""
param *.node[*].mobility.x 0
param *.node[*].mobility.y 0
param *.node[*].mobility.z 1.895
param *.node[*].prot.attackStart 30s
param *.node[*].prot.attackerType 3
param *.node[*].prot.attackingNode 3
param *.node[*].prot.beaconingInterval 0.1s
param *.node[*].prot.fakeAcc "(3 == 4)"
param *.node[*].prot.fakePos "(3 == 2)"
param *.node[*].prot.fakeSpeed "(3 == 3)"
param *.node[*].prot.maliciousAcc "-30 mpss"
param *.node[*].prot.maliciousSpeed 100kmph
param *.node[*].prot.packetSize 200
param *.node[*].prot.priority 2
param *.node[*].prot.shiftX "7 m"
param *.node[*].prot.useControllerAcceleration true
param *.node[*].protocol_type "\"SimplePlatooningBeaconing\""
param *.node[*].scenario.accHeadway 0.1s
param *.node[*].scenario.caccC1 0.5
param *.node[*].scenario.caccOmegaN "0.2 Hz"
param *.node[*].scenario.caccSpacing 5m
param *.node[*].scenario.caccXi 1
param *.node[*].scenario.controller "\"CACC\""
param *.node[*].scenario.engineTau "0.5 s"
param *.node[*].scenario.leaderHeadway 1.2s
param *.node[*].scenario.leaderOscillationFrequency "0.2 Hz"
param *.node[*].scenario.leaderSpeed 50kmph
param *.node[*].scenario.oscillationAmplitude "10 kmph"
param *.node[*].scenario.ploegH 0.5s
param *.node[*].scenario.ploegKd 0.7
param *.node[*].scenario.ploegKp 0.2
param *.node[*].scenario.startOscillating "5 s"
param *.node[*].scenario.useRealisticEngine false
param *.node[*].scenario_type "\"SinusoidalScenario\""
param *.node[*].unicast.packetLossRate 0
param *.obstacles.debug false
param *.playgroundSizeX 65000m
param *.playgroundSizeY 25000m
param *.playgroundSizeZ 50m
param *.world.use2D false
param *.world.useTorus false

vector 0  scenario.node[0].appl  distance  ETV
vector 1  scenario.node[0].appl  relativeSpeed  ETV
vector 2  scenario.node[0].appl  nodeId  ETV
vector 6  scenario.node[0].appl  acceleration  ETV
vector 7  scenario.node[0].appl  controllerAcceleration  ETV
vector 3  scenario.node[0].appl  speed  ETV
vector 4  scenario.node[0].appl  posx  ETV
vector 5  scenario.node[0].appl  posy  ETV
vector 22  scenario.node[1].appl  distance  ETV
vector 23  scenario.node[1].appl  relativeSpeed  ETV
vector 24  scenario.node[1].appl  nodeId  ETV
vector 28  scenario.node[1].appl  acceleration  ETV
vector 29  scenario.node[1].appl  controllerAcceleration  ETV
vector 25  scenario.node[1].appl  speed  ETV
vector 26  scenario.node[1].appl  posx  ETV
vector 27  scenario.node[1].appl  posy  ETV
vector 44  scenario.node[2].appl  distance  ETV
vector 45  scenario.node[2].appl  relativeSpeed  ETV
vector 46  scenario.node[2].appl  nodeId  ETV
vector 50  scenario.node[2].appl  acceleration  ETV
vector 51  scenario.node[2].appl  controllerAcceleration  ETV
vector 47  scenario.node[2].appl  speed  ETV
vector 48  scenario.node[2].appl  posx  ETV
vector 49  scenario.node[2].appl  posy  ETV
vector 66  scenario.node[3].appl  distance  ETV
vector 67  scenario.node[3].appl  relativeSpeed  ETV
vector 68  scenario.node[3].appl  nodeId  ETV
vector 72  scenario.node[3].appl  acceleration  ETV
vector 73  scenario.node[3].appl  controllerAcceleration  ETV
vector 69  scenario.node[3].appl  speed  ETV
vector 70  scenario.node[3].appl  posx  ETV
vector 71  scenario.node[3].appl  posy  ETV
vector 88  scenario.node[4].appl  distance  ETV
vector 89  scenario.node[4].appl  relativeSpeed  ETV
vector 90  scenario.node[4].appl  nodeId  ETV
vector 94  scenario.node[4].appl  acceleration  ETV
vector 95  scenario.node[4].appl  controllerAcceleration  ETV
vector 91  scenario.node[4].appl  speed  ETV
vector 92  scenario.node[4].appl  posx  ETV
vector 93  scenario.node[4].appl  posy  ETV
vector 110  scenario.node[5].appl  distance  ETV
vector 111  scenario.node[5].appl  relativeSpeed  ETV
vector 112  scenario.node[5].appl  nodeId  ETV
vector 116  scenario.node[5].appl  acceleration  ETV
vector 117  scenario.node[5].appl  controllerAcceleration  ETV
vector 113  scenario.node[5].appl  speed  ETV
vector 114  scenario.node[5].appl  posx  ETV
vector 115  scenario.node[5].appl  posy  ETV
vector 132  scenario.node[6].appl  distance  ETV
vector 133  scenario.node[6].appl  relativeSpeed  ETV
vector 134  scenario.node[6].appl  nodeId  ETV
vector 138  scenario.node[6].appl  acceleration  ETV
vector 139  scenario.node[6].appl  controllerAcceleration  ETV
vector 135  scenario.node[6].appl  speed  ETV
vector 136  scenario.node[6].appl  posx  ETV
vector 137  scenario.node[6].appl  posy  ETV
vector 154  scenario.node[7].appl  distance  ETV
vector 155  scenario.node[7].appl  relativeSpeed  ETV
vector 156  scenario.node[7].appl  nodeId  ETV
vector 160  scenario.node[7].appl  acceleration  ETV
vector 161  scenario.node[7].appl  controllerAcceleration  ETV
vector 157  scenario.node[7].appl  speed  ETV
vector 158  scenario.node[7].appl  posx  ETV
vector 159  scenario.node[7].appl  posy  ETV
vector 80  scenario.node[3].prot  frontDelay  ETV
vector 78  scenario.node[3].prot  frontDelayId  ETV
vector 58  scenario.node[2].prot  frontDelay  ETV
vector 56  scenario.node[2].prot  frontDelayId  ETV
vector 168  scenario.node[7].prot  frontDelay  ETV
vector 166  scenario.node[7].prot  frontDelayId  ETV
vector 35  scenario.node[1].prot  leaderDelay  ETV
vector 33  scenario.node[1].prot  leaderDelayId  ETV
vector 36  scenario.node[1].prot  frontDelay  ETV
vector 34  scenario.node[1].prot  frontDelayId  ETV
vector 57  scenario.node[2].prot  leaderDelay  ETV
vector 55  scenario.node[2].prot  leaderDelayId  ETV
vector 79  scenario.node[3].prot  leaderDelay  ETV
vector 77  scenario.node[3].prot  leaderDelayId  ETV
vector 101  scenario.node[4].prot  leaderDelay  ETV
vector 99  scenario.node[4].prot  leaderDelayId  ETV
vector 123  scenario.node[5].prot  leaderDelay  ETV
vector 121  scenario.node[5].prot  leaderDelayId  ETV
vector 145  scenario.node[6].prot  leaderDelay  ETV
vector 143  scenario.node[6].prot  leaderDelayId  ETV
vector 167  scenario.node[7].prot  leaderDelay  ETV
vector 165  scenario.node[7].prot  leaderDelayId  ETV
vector 124  scenario.node[5].prot  frontDelay  ETV
vector 122  scenario.node[5].prot  frontDelayId  ETV
vector 102  scenario.node[4].prot  frontDelay  ETV
vector 100  scenario.node[4].prot  frontDelayId  ETV
vector 146  scenario.node[6].prot  frontDelay  ETV
vector 144  scenario.node[6].prot  frontDelayId  ETV
vector 8  scenario.node[0].prot  nodeId  ETV
vector 9  scenario.node[0].prot  busyTime  ETV
vector 10  scenario.node[0].prot  collisions  ETV
vector 30  scenario.node[1].prot  nodeId  ETV
vector 31  scenario.node[1].prot  busyTime  ETV
vector 32  scenario.node[1].prot  collisions  ETV
vector 52  scenario.node[2].prot  nodeId  ETV
vector 53  scenario.node[2].prot  busyTime  ETV
vector 54  scenario.node[2].prot  collisions  ETV
vector 74  scenario.node[3].prot  nodeId  ETV
vector 75  scenario.node[3].prot  busyTime  ETV
vector 76  scenario.node[3].prot  collisions  ETV
vector 96  scenario.node[4].prot  nodeId  ETV
vector 97  scenario.node[4].prot  busyTime  ETV
vector 98  scenario.node[4].prot  collisions  ETV
vector 118  scenario.node[5].prot  nodeId  ETV
vector 119  scenario.node[5].prot  busyTime  ETV
vector 120  scenario.node[5].prot  collisions  ETV
vector 140  scenario.node[6].prot  nodeId  ETV
vector 141  scenario.node[6].prot  busyTime  ETV
vector 142  scenario.node[6].prot  collisions  ETV
vector 162  scenario.node[7].prot  nodeId  ETV
vector 163  scenario.node[7].prot  busyTime  ETV
vector 164  scenario.node[7].prot  collisions  ETV
7	232	1.11	-4.215365603244e-07
7	788	1.21	-4.123519392607e-07
7	1344	1.31	-3.9742146640265e-07
7	1900	1.41	-3.7804518804307e-07
7	2456	1.51	-3.5536931619617e-07
7	3012	1.61	-3.3039333047213e-07
7	3568	1.71	-3.039784495229e-07
7	4124	1.81	-2.7685694803381e-07
7	4680	1.91	-2.4964219491608e-07
7	5244	2.01	-2.2283905920517e-07
7	5800	2.11	-1.9685434082817e-07
7	6356	2.21	-1.7200705926257e-07
7	6912	2.31	-1.4853853436136e-07
7	7468	2.41	-1.2662199289082e-07
7	8024	2.51	-1.0637172032091e-07
7	8580	2.61	-8.7851576680009e-08
7	9136	2.71	-7.1082913777332e-08
7	9692	2.81	-5.6051822738823e-08
7	10248	2.91	-4.2715759818179e-08
7	10812	3.01	-3.1009408374416e-08
7	11368	3.11	-2.0849929782685e-08
7	11924	3.21	-1.2141658345399e-08
7	12480	3.31	-4.7800785551999e-09
7	13036	3.41	1.3447181146375e-09
7	13592	3.51	6.3450702469936e-09
7	14148	3.61	1.0333288003039e-08
7	14704	3.71	1.3419677813431e-08
7	15260	3.81	1.5710899248234e-08
7	15816	3.91	1.7308703803565e-08
7	16380	4.01	1.830899876154e-08
7	16936	4.11	1.8801173951033e-08
7	17492	4.21	1.8867702067382e-08
7	18048	4.31	1.8583865113442e-08
7	18604	4.41	1.8017717096086e-08
7	19160	4.51	1.723012310606e-08
7	19716	4.61	1.6274986691656e-08
7	20272	4.71	1.5199535852162e-08
7	20828	4.81	1.4044672980162e-08
7	21384	4.91	1.2845363883685e-08
7	21949	5.01	1.1631094309905e-08
7	22506	5.11	0.3481478814383
7	23063	5.21	0.68726936236521
7	23620	5.31	1.0064706229906
7	24177	5.41	1.2963311628453
7	24734	5.51	1.5
7	25291	5.61	1.5
7	25848	5.71	1.5
7	26405	5.81	1.5
7	26962	5.91	1.5
7	27527	6.01	1.5
7	28084	6.11	1.5
7	28641	6.21	1.5
7	29198	6.31	1.5
7	29755	6.41	1.5
7	30312	6.51	1.4919234130517
7	30869	6.61	1.2264993275909
7	31426	6.71	0.92305383931647
7	31983	6.81	0.58908101929403
7	32540	6.91	0.23235621605629
7	33105	7.01	-0.13919559804423
7	33662	7.11	-0.51762846559318
7	34219	7.21	-0.89509993922417
7	34776	7.31	-1.2639902882471
7	35333	7.41	-1.5
7	35890	7.51	-1.5
7	36447	7.61	-1.5
7	37004	7.71	-1.5
7	37561	7.81	-1.5
7	38118	7.91	-1.5
7	38683	8.01	-1.5
7	39240	8.11	-1.5
7	39797	8.21	-1.5
7	40354	8.31	-1.5
7	40911	8.41	-1.5
7	41468	8.51	-1.5
7	42025	8.61	-1.5
7	42582	8.71	-1.5
7	43139	8.81	-1.5
7	43696	8.91	-1.5
7	44261	9.01	-1.5
7	44818	9.11	-1.5
7	45375	9.21	-1.5
7	45932	9.31	-1.5
7	46489	9.41	-1.5
7	47046	9.51	-1.1784535904988
7	47603	9.61	-0.73985166426131
7	48160	9.71	-0.29046662065306
7	48717	9.81	0.15868205664034
7	49274	9.91	0.59737147685681
7	49839	10.01	1.0162504341391
7	50396	10.11	1.4069035498462
7	50953	10.21	1.5
7	51510	10.31	1.5
7	52067	10.41	1.5
7	52624	10.51	1.5
7	53181	10.61	1.5
7	53738	10.71	1.5
7	54295	10.81	1.5
7	54852	10.91	1.5
7	55417	11.01	1.5
7	55974	11.11	1.5
7	56531	11.21	1.5
7	57088	11.31	1.5
7	57645	11.41	1.5
7	58202	11.51	1.5
7	58759	11.61	1.5
7	59316	11.71	1.5
7	59873	11.81	1.5
7	60430	11.91	1.1420569523224
7	60995	12.01	0.73271074172757
7	61552	12.11	0.30763491701868
7	62109	12.21	-0.12290183401692
7	62666	12.31	-0.54917422866109
7	63223	12.41	-0.96209331717302
7	63780	12.51	-1.3532900275371
7	64337	12.61	-1.5
7	64894	12.71	-1.5
7	65451	12.81	-1.5
7	66008	12.91	-1.5
7	66573	13.01	-1.5
7	67130	13.11	-1.5
7	67687	13.21	-1.5
7	68244	13.31	-1.5
7	68801	13.41	-1.5
7	69358	13.51	-1.5
7	69915	13.61	-1.5
7	70472	13.71	-1.5
7	71029	13.81	-1.5
7	71586	13.91	-1.5
7	72151	14.01	-1.5
7	72708	14.11	-1.5
7	73265	14.21	-1.5
7	73822	14.31	-1.5
7	74379	14.41	-1.3008305793183
7	74936	14.51	-0.88835736021285
7	75493	14.61	-0.45792464374985
7	76050	14.71	-0.020297800482021
7	76607	14.81	0.4143593475729
7	77164	14.91	0.8365748748462
7	77729	15.01	1.2376491838941
7	78286	15.11	1.5
7	78843	15.21	1.5
7	79400	15.31	1.5
7	79957	15.41	1.5
7	80514	15.51	1.5
7	81071	15.61	1.5
7	81628	15.71	1.5
7	82185	15.81	1.5
7	82742	15.91	1.5
7	83307	16.01	1.5
7	83864	16.11	1.5
7	84421	16.21	1.5
7	84978	16.31	1.5
7	85535	16.41	1.5
7	86092	16.51	1.5
7	86649	16.61	1.5
7	87206	16.71	1.5
7	87763	16.81	1.5
7	88320	16.91	1.2451238477388
7	88885	17.01	0.83347870135435
7	89442	17.11	0.40470958876969
7	89999	17.21	-0.030598062218257
7	90556	17.31	-0.46243980386594
7	91113	17.41	-0.8814833530456
7	91670	17.51	-1.2791500631716
7	92227	17.61	-1.5
7	92784	17.71	-1.5
7	93341	17.81	-1.5
7	93898	17.91	-1.5
7	94463	18.01	-1.5
7	95020	18.11	-1.5
7	95577	18.21	-1.5
7	96134	18.31	-1.5
7	96691	18.41	-1.5
7	97248	18.51	-1.5
7	97805	18.61	-1.5
7	98362	18.71	-1.5
7	98919	18.81	-1.5
7	99476	18.91	-1.5
7	100041	19.01	-1.5
7	100598	19.11	-1.5
7	101155	19.21	-1.5
7	101712	19.31	-1.5
7	102269	19.41	-1.2657245815134
7	102826	19.51	-0.85377693481579
7	103383	19.61	-0.42439560038158
7	103940	19.71	0.011767371267542
7	104497	19.81	0.44464851836336
7	105054	19.91	0.86486384400473
7	105619	20.01	1.2637899041122
7	106176	20.11	1.5
7	106733	20.21	1.5
7	107290	20.31	1.5
7	107847	20.41	1.5
7	108404	20.51	1.5
7	108961	20.61	1.5
7	109518	20.71	1.5
7	110075	20.81	1.5
7	110632	20.91	1.5
7	111197	21.01	1.5
7	111754	21.11	1.5
7	112311	21.21	1.5
7	112868	21.31	1.5
7	113425	21.41	1.5
7	113982	21.51	1.5
7	114539	21.61	1.5
7	115096	21.71	1.5
7	115653	21.81	1.5
7	116210	21.91	1.2580915517758
7	116775	22.01	0.84625491634779
7	117332	22.11	0.41709956367461
7	117889	22.21	-0.018747163543122
7	118446	22.31	-0.45124369149455
7	119003	22.41	-0.8710252053863
7	119560	22.51	-1.26948487946
7	120117	22.61	-1.5
7	120674	22.71	-1.5
7	121231	22.81	-1.5
7	121788	22.91	-1.5
7	122353	23.01	-1.5
7	122910	23.11	-1.5
7	123467	23.21	-1.5
7	124024	23.31	-1.5
7	124581	23.41	-1.5
7	125138	23.51	-1.5
7	125695	23.61	-1.5
7	126252	23.71	-1.5
7	126809	23.81	-1.5
7	127366	23.91	-1.5
7	127931	24.01	-1.5
7	128488	24.11	-1.5
7	129045	24.21	-1.5
7	129602	24.31	-1.5
7	130159	24.41	-1.260923965112
7	130716	24.51	-0.84904615684565
7	131273	24.61	-0.41980696481147
7	131830	24.71	0.01615709944571
7	132387	24.81	0.44879633965971
7	132944	24.91	0.86873882266827
7	133509	25.01	1.2673715557189
7	134066	25.11	1.5
7	134623	25.21	1.5
7	135180	25.31	1.5
7	135737	25.41	1.5
7	136294	25.51	1.5
7	136851	25.61	1.5
7	137408	25.71	1.5
7	137965	25.81	1.5
7	138522	25.91	1.5
7	139087	26.01	1.5
7	139644	26.11	1.5
7	140201	26.21	1.5
7	140758	26.31	1.5
7	141315	26.41	1.5
7	141872	26.51	1.5
7	142429	26.61	1.5
7	142986	26.71	1.5
7	143543	26.81	1.5
7	144100	26.91	1.259872851863
7	144665	27.01	0.84801032251393
7	145222	27.11	0.41880224309103
7	145779	27.21	-0.017118277442348
7	146336	27.31	-0.44970455708455
7	146893	27.41	-0.86958730431938
7	147450	27.51	-1.2681558149833
7	148007	27.61	-1.5
7	148564	27.71	-1.5
7	149121	27.81	-1.5
7	149678	27.91	-1.5
7	150243	28.01	-1.5
7	150800	28.11	-1.5
7	151357	28.21	-1.5
7	151914	28.31	-1.5
7	152471	28.41	-1.5
7	153028	28.51	-1.5
7	153585	28.61	-1.5
7	154142	28.71	-1.5
7	154699	28.81	-1.5
7	155256	28.91	-1.5
7	155821	29.01	-1.5
7	156378	29.11	-1.5
7	156935	29.21	-1.5
7	157492	29.31	-1.5
7	158049	29.41	-1.2602629232527
7	158606	29.51	-0.84839472385746
7	159163	29.61	-0.41917509845393
7	159720	29.71	0.016761581285863
7	160277	29.81	0.44936751475712
7	160834	29.91	0.86927243012053
7	161399	30.01	1.2678647739099
7	161956	30.11	1.5
7	162513	30.21	1.5
7	163070	30.31	1.5
7	163627	30.41	1.5
7	164184	30.51	1.5
7	164741	30.61	1.5
7	165298	30.71	1.5
7	165855	30.81	1.5
7	166412	30.91	1.5
7	166977	31.01	1.5
7	167534	31.11	1.5
7	168091	31.21	1.5
7	168648	31.31	1.5
7	169205	31.41	1.5
7	169762	31.51	1.5
7	170319	31.61	1.5
7	170876	31.71	1.5
7	171433	31.81	1.5
7	171990	31.91	1.2601181665191
7	172555	32.01	0.84825207129591
7	173112	32.11	0.4190367306424
7	173669	32.21	-0.01689395236456
7	174226	32.31	-0.44949259223739
7	174783	32.41	-0.86938928093775
7	175340	32.51	-1.2679727801784
7	175897	32.61	-1.5
6	232	1.11	-6.1957727837125e-08
6	788	1.21	-1.257166815094e-07
6	1344	1.31	-1.7576642363792e-07
6	1900	1.41	-2.1367210223389e-07
6	2456	1.51	-2.40935627005e-07
6	3012	1.61	-2.5897985977963e-07
6	3568	1.71	-2.6913706818732e-07
6	4124	1.81	-2.7264253077419e-07
6	4680	1.91	-2.70628319754e-07
6	5244	2.01	-2.6412187992264e-07
6	5800	2.11	-2.540470944723e-07
6	6356	2.21	-2.4122570607688e-07
6	6912	2.31	-2.2638122487706e-07
6	7468	2.41	-2.1014301410105e-07
6	8024	2.51	-1.9305321785623e-07
6	8580	2.61	-1.7557066911422e-07
6	9136	2.71	-1.5808012676644e-07
6	9692	2.81	-1.408965388805e-07
6	10248	2.91	-1.2427268103465e-07
6	10812	3.01	-1.0840643938081e-07
6	11368	3.11	-9.3446494986438e-08
6	11924	3.21	-7.9497652905047e-08
6	12480	3.31	-6.662919105338e-08
6	13036	3.41	-5.487734711096e-08
6	13592	3.51	-4.4252601583139e-08
6	14148	3.61	-3.474287524341e-08
6	14704	3.71	-2.631832529687e-08
6	15260	3.81	-1.8935253365271e-08
6	15816	3.91	-1.2538947657958e-08
6	16380	4.01	-7.0667027785021e-09
6	16936	4.11	-2.4508395313205e-09
6	17492	4.21	1.3796963571622e-09
6	18048	4.31	4.4970249746257e-09
6	18604	4.41	6.9737993158014e-09
6	19160	4.51	8.8805407472137e-09
6	19716	4.61	1.0285283735811e-08
6	20272	4.71	1.1253575848968e-08
6	20828	4.81	1.1845813219225e-08
6	21384	4.91	1.2119549808176e-08
6	21949	5.01	1.2126655235534e-08
6	22506	5.11	0.0068264407582674
6	23063	5.21	0.074594825204244
6	23620	5.31	0.19005133580965
6	24177	5.41	0.34050271604578
6	24734	5.51	0.51301637992296
6	25291	5.61	0.69025457770344
6	25848	5.71	0.83572671948744
6	26405	5.81	0.95506454367928
6	26962	5.91	1.0529631248657
6	27527	6.01	1.1332740595019
6	28084	6.11	1.1991569981921
6	28641	6.21	1.2532039549377
6	29198	6.31	1.2975412840174
6	29755	6.41	1.333913336549
6	30312	6.51	1.3635927235564
6	30869	6.61	1.3702053601566
6	31426	6.71	1.3272611912161
6	31983	6.81	1.2373810907324
6	32540	6.91	1.10404337413
6	33105	7.01	0.93147091874766
6	33662	7.11	0.72451590435048
6	34219	7.21	0.4885431822391
6	34776	7.31	0.22931329511646
6	35333	7.41	-0.044839399439311
6	35890	7.51	-0.30626147528494
6	36447	7.61	-0.52071863075458
6	37004	7.71	-0.69664819363986
6	37561	7.81	-0.84097171145086
6	38118	7.91	-0.95936726391912
6	38683	8.01	-1.0564928540992
6	39240	8.11	-1.1361696668779
6	39797	8.21	-1.2015324047802
6	40354	8.31	-1.2551526156937
6	40911	8.41	-1.2991398645553
6	41468	8.51	-1.3352247293753
6	42025	8.61	-1.3648268868815
6	42582	8.71	-1.3891109664646
6	43139	8.81	-1.4090323698644
6	43696	8.91	-1.4253748592747
6	44261	9.01	-1.4387813926779
6	44818	9.11	-1.4497794195627
6	45375	9.21	-1.4588016322197
6	45932	9.31	-1.4662029890339
6	46489	9.41	-1.472274679513
6	47046	9.51	-1.4696249147034
6	47603	9.61	-1.3967850639437
6	48160	9.71	-1.2587757641633
6	48717	9.81	-1.0660952218261
6	49274	9.91	-0.82923335021992
6	49839	10.01	-0.55852907837295
6	50396	10.11	-0.26404116072971
6	50953	10.21	0.039432698699926
6	51510	10.31	0.30182609752512
6	52067	10.41	0.51708007614977
6	52624	10.51	0.69366331155596
6	53181	10.61	0.83852306850822
6	53738	10.71	0.95735852384404
6	54295	10.81	1.0548449875937
6	54852	10.91	1.1348178423914
6	55417	11.01	1.2004234378608
6	55974	11.11	1.2542428765666
6	56531	11.21	1.2983935616091
6	57088	11.31	1.3346125010223
6	57645	11.41	1.364324646393
6	58202	11.51	1.3886989543336
6	58759	11.61	1.4086943764131
6	59316	11.71	1.4250975869215
6	59873	11.81	1.4385539327746
6	60430	11.91	1.4345627372796
6	60995	12.01	1.362344918871
6	61552	12.11	1.2299875654412
6	62109	12.21	1.0461448397713
6	62666	12.31	0.81967864248274
6	63223	12.41	0.55952045903922
6	63780	12.51	0.27454262948492
6	64337	12.61	-0.022341644884349
6	64894	12.71	-0.2878054805846
6	65451	12.81	-0.50557828687943
6	66008	12.91	-0.68422783828268
6	66573	13.01	-0.83078269404986
6	67130	13.11	-0.95100872081701
6	67687	13.21	-1.0496359374757
6	68244	13.31	-1.1305446069832
6	68801	13.41	-1.1969178964591
6	69358	13.51	-1.2513671116379
6	69915	13.61	-1.2960344327389
6	70472	13.71	-1.3326771936644
6	71029	13.81	-1.3627370202924
6	71586	13.91	-1.3873965479609
6	72151	14.01	-1.4076259495598
6	72708	14.11	-1.4242211047687
6	73265	14.21	-1.4378349121303
6	73822	14.31	-1.4490029758544
6	74379	14.41	-1.454259395185
6	74936	14.51	-1.4067454390036
6	75493	14.61	-1.2938574955303
6	76050	14.71	-1.124840905225
6	76607	14.81	-0.90912582142568
6	77164	14.91	-0.65618298375991
6	77729	15.01	-0.37539052553566
6	78286	15.11	-0.078063005087259
6	78843	15.21	0.20543869668082
6	79400	15.31	0.43800883573812
6	79957	15.41	0.62879735391554
6	80514	15.51	0.7853103904381
6	81071	15.61	0.91370559385755
6	81628	15.71	1.0190343806947
6	82185	15.81	1.1054406719046
6	82742	15.91	1.1763239259972
6	83307	16.01	1.2344728829815
6	83864	16.11	1.2821752809831
6	84421	16.21	1.3213078620836
6	84978	16.31	1.353410208459
6	85535	16.41	1.3797453137304
6	86092	16.51	1.4013492725669
6	86649	16.61	1.4190720434685
6	87206	16.71	1.433610888447
6	87763	16.81	1.4455378052071
6	88320	16.91	1.4502949065323
6	88885	17.01	1.3935559567521
6	89442	17.11	1.2733368701442
6	89999	17.21	1.0986742440538
6	90556	17.31	0.87879676591474
6	91113	17.41	0.62298329276036
6	91670	17.51	0.34043137853494
6	92227	17.61	0.043031849081565
6	92784	17.71	-0.23417644595263
6	93341	17.81	-0.4615837994951
6	93898	17.91	-0.648137035353
6	94463	18.01	-0.801175665225
6	95020	18.11	-0.92672064505575
6	95577	18.21	-1.0297112558181
6	96134	18.31	-1.1141994282598
6	96691	18.41	-1.1835091568821
6	97248	18.51	-1.2403672749222
6	97805	18.61	-1.2870107353907
6	98362	18.71	-1.325274618886
6	98919	18.81	-1.3566643306579
6	99476	18.91	-1.3824148273438
6	100041	19.01	-1.4035392035211
6	100598	19.11	-1.420868549604
6	101155	19.21	-1.4350846492013
6	101712	19.31	-1.4467468023362
6	102269	19.41	-1.451720194177
6	102826	19.51	-1.3984004323888
6	103383	19.61	-1.2808993810095
6	103940	19.71	-1.1083308503775
6	104497	19.81	-0.88999806036849
6	105054	19.91	-0.63525086466907
6	105619	20.01	-0.35335363991358
6	106176	20.11	-0.055983891307321
6	106733	20.21	0.22355126013291
6	107290	20.31	0.4528674463721
6	107847	20.41	0.6409865898874
6	108404	20.51	0.79530980944416
6	108961	20.61	0.92190860023873
6	109518	20.71	1.0257637030335
6	110075	20.81	1.1109610600444
6	110632	20.91	1.1808525670222
6	111197	21.01	1.2381879459472
6	111754	21.11	1.2852229265711
6	112311	21.21	1.3238079929604
6	112868	21.31	1.3554611865732
6	113425	21.41	1.3814278301394
6	113982	21.51	1.4027295220425
6	114539	21.61	1.4202043287794
6	115096	21.71	1.4345397567766
6	115653	21.81	1.4462998007621
6	116210	21.91	1.4512038299459
6	116775	22.01	1.3966149622043
6	117332	22.11	1.2781048258539
6	117889	22.21	1.1047586168255
6	118446	22.31	0.88585193073953
6	119003	22.41	0.63070830476128
6	119560	22.51	0.34856734381012
6	120117	22.61	0.0511856543703
6	120674	22.71	-0.22748748564663
6	121231	22.81	-0.45609652228009
6	121788	22.91	-0.6436355568189
6	122353	23.01	-0.79748288496297
6	122910	23.11	-0.92369127904615
6	123467	23.21	-1.0272261205623
6	124024	23.31	-1.1121607517778
6	124581	23.41	-1.1818367320961
6	125138	23.51	-1.2389953040925
6	125695	23.61	-1.2858852414526
6	126252	23.71	-1.3243513218477
6	126809	23.81	-1.3559069055024
6	127366	23.91	-1.3817934749051
6	127931	24.01	-1.4030294781042
6	128488	24.11	-1.4204503972245
6	129045	24.21	-1.4347416186069
6	129602	24.31	-1.4464653977715
6	130159	24.41	-1.4513952146874
6	130716	24.51	-1.3972773206753
6	131273	24.61	-1.2791416668554
6	131830	24.71	-1.1060840673016
6	132387	24.81	-0.88739036841616
6	132944	24.91	-0.63239387292562
6	133509	25.01	-0.35034337810913
6	134066	25.11	-0.052966136909482
6	134623	25.21	0.22602686982296
6	135180	25.31	0.45489830857282
6	135737	25.41	0.64265260424126
6	136294	25.51	0.79667652148707
6	136851	25.61	0.92302978013983
6	137408	25.71	1.026683461059
6	137965	25.81	1.1117155819768
6	138522	25.91	1.1814715378065
6	139087	26.01	1.2386957175778
6	139644	26.11	1.2856394761648
6	140201	26.21	1.3241497087115
6	140758	26.31	1.3557415125092
6	141315	26.41	1.3816577950445
6	141872	26.51	1.4029181733612
6	142429	26.61	1.4203590885678
6	142986	26.71	1.4346667137062
6	143543	26.81	1.4464039496636
6	144100	26.91	1.4513241957731
6	144665	27.01	1.3970315218257
6	145222	27.11	1.2787568961965
6	145779	27.21	1.105592192547
6	146336	27.31	0.88681945319422
6	146893	27.41	0.63176835684544
6	147450	27.51	0.34968428947462
6	148007	27.61	0.052305397195518
6	148564	27.71	-0.22656890652382
6	149121	27.81	-0.45534296745871
6	149678	27.91	-0.64301737940227
6	150243	28.01	-0.79697576416979
6	150800	28.11	-0.92327526336593
6	151357	28.21	-1.0268848428064
6	151914	28.31	-1.1118807851512
6	152471	28.41	-1.1816070619497
6	153028	28.51	-1.2388068945784
6	153585	28.61	-1.2857306800282
6	154142	28.71	-1.3242245276457
6	154699	28.81	-1.3558028900942
6	155256	28.91	-1.3817081460418
6	155821	29.01	-1.4029594787162
6	156378	29.11	-1.420392973346
6	156935	29.21	-1.4346945110265
6	157492	29.31	-1.446426753148
6	158049	29.41	-1.451350551031
6	158606	29.51	-1.3971227384756
6	159163	29.61	-1.2788996857301
6	159720	29.71	-1.1057747287552
6	160277	29.81	-0.8870313215759
6	160834	29.91	-0.6320004877848
6	161399	30.01	-0.34992887930123
6	161956	30.11	-0.052550599748891
6	162513	30.21	0.22636775502605
6	163070	30.31	0.45517795316936
6	163627	30.41	0.64288201021068
6	164184	30.51	0.79686471428388
6	164741	30.61	0.92318416378063
6	165298	30.71	1.0268101094166
6	165855	30.81	1.1118194777421
6	166412	30.91	1.1815567685211
6	166977	31.01	1.2387656364497
6	167534	31.11	1.2856968339927
6	168091	31.21	1.3241967621083
6	168648	31.31	1.3557801126831
6	169205	31.41	1.3816894606315
6	169762	31.51	1.4029441501719
6	170319	31.61	1.4203803986005
6	170876	31.71	1.4346841953552
6	171433	31.81	1.4464182907044
6	171990	31.91	1.4513407705126
6	172555	32.01	1.397088887688
6	173112	32.11	1.278846696081
6	173669	32.21	1.1057069889883
6	174226	32.31	0.88695269654568
6	174783	32.41	0.63191434325471
6	175340	32.51	0.34983811123848
6	175897	32.61	0.052459604300914
5	232	1.11	36.55
5	788	1.21	36.55
5	1344	1.31	36.55
5	1900	1.41	36.55
5	2456	1.51	36.55
5	3012	1.61	36.55
5	3568	1.71	36.55
5	4124	1.81	36.55
5	4680	1.91	36.55
5	5244	2.01	36.55
5	5800	2.11	36.55
5	6356	2.21	36.55
5	6912	2.31	36.55
5	7468	2.41	36.55
5	8024	2.51	36.55
5	8580	2.61	36.55
5	9136	2.71	36.55
5	9692	2.81	36.55
5	10248	2.91	36.55
5	10812	3.01	36.55
5	11368	3.11	36.55
5	11924	3.21	36.55
5	12480	3.31	36.55
5	13036	3.41	36.55
5	13592	3.51	36.55
5	14148	3.61	36.55
5	14704	3.71	36.55
5	15260	3.81	36.55
5	15816	3.91	36.55
5	16380	4.01	36.55
5	16936	4.11	36.55
5	17492	4.21	36.55
5	18048	4.31	36.55
5	18604	4.41	36.55
5	19160	4.51	36.55
5	19716	4.61	36.55
5	20272	4.71	36.55
5	20828	4.81	36.55
5	21384	4.91	36.55
5	21949	5.01	36.55
5	22506	5.11	36.55
5	23063	5.21	36.55
5	23620	5.31	36.55
5	24177	5.41	36.55
5	24734	5.51	36.55
5	25291	5.61	36.55
5	25848	5.71	36.55
5	26405	5.81	36.55
5	26962	5.91	36.55
5	27527	6.01	36.55
5	28084	6.11	36.55
5	28641	6.21	36.55
5	29198	6.31	36.55
5	29755	6.41	36.55
5	30312	6.51	36.55
5	30869	6.61	36.55
5	31426	6.71	36.55
5	31983	6.81	36.55
5	32540	6.91	36.55
5	33105	7.01	36.55
5	33662	7.11	36.55
5	34219	7.21	36.55
5	34776	7.31	36.55
5	35333	7.41	36.55
5	35890	7.51	36.55
5	36447	7.61	36.55
5	37004	7.71	36.55
5	37561	7.81	36.55
5	38118	7.91	36.55
5	38683	8.01	36.55
5	39240	8.11	36.55
5	39797	8.21	36.55
5	40354	8.31	36.55
5	40911	8.41	36.55
5	41468	8.51	36.55
5	42025	8.61	36.55
5	42582	8.71	36.55
5	43139	8.81	36.55
5	43696	8.91	36.55
5	44261	9.01	36.55
5	44818	9.11	36.55
5	45375	9.21	36.55
5	45932	9.31	36.55
5	46489	9.41	36.55
5	47046	9.51	36.55
5	47603	9.61	36.55
5	48160	9.71	36.55
5	48717	9.81	36.55
5	49274	9.91	36.55
5	49839	10.01	36.55
5	50396	10.11	36.55
5	50953	10.21	36.55
5	51510	10.31	36.55
5	52067	10.41	36.55
5	52624	10.51	36.55
5	53181	10.61	36.55
5	53738	10.71	36.55
5	54295	10.81	36.55
5	54852	10.91	36.55
5	55417	11.01	36.55
5	55974	11.11	36.55
5	56531	11.21	36.55
5	57088	11.31	36.55
5	57645	11.41	36.55
5	58202	11.51	36.55
5	58759	11.61	36.55
5	59316	11.71	36.55
5	59873	11.81	36.55
5	60430	11.91	36.55
5	60995	12.01	36.55
5	61552	12.11	36.55
5	62109	12.21	36.55
5	62666	12.31	36.55
5	63223	12.41	36.55
5	63780	12.51	36.55
5	64337	12.61	36.55
5	64894	12.71	36.55
5	65451	12.81	36.55
5	66008	12.91	36.55
5	66573	13.01	36.55
5	67130	13.11	36.55
5	67687	13.21	36.55
5	68244	13.31	36.55
5	68801	13.41	36.55
5	69358	13.51	36.55
5	69915	13.61	36.55
5	70472	13.71	36.55
5	71029	13.81	36.55
5	71586	13.91	36.55
5	72151	14.01	36.55
5	72708	14.11	36.55
5	73265	14.21	36.55
5	73822	14.31	36.55
5	74379	14.41	36.55
5	74936	14.51	36.55
5	75493	14.61	36.55
5	76050	14.71	36.55
5	76607	14.81	36.55
5	77164	14.91	36.55
5	77729	15.01	36.55
5	78286	15.11	36.55
5	78843	15.21	36.55
5	79400	15.31	36.55
5	79957	15.41	36.55
5	80514	15.51	36.55
5	81071	15.61	36.55
5	81628	15.71	36.55
5	82185	15.81	36.55
5	82742	15.91	36.55
5	83307	16.01	36.55
5	83864	16.11	36.55
5	84421	16.21	36.55
5	84978	16.31	36.55
5	85535	16.41	36.55
5	86092	16.51	36.55
5	86649	16.61	36.55
5	87206	16.71	36.55
5	87763	16.81	36.55
5	88320	16.91	36.55
5	88885	17.01	36.55
5	89442	17.11	36.55
5	89999	17.21	36.55
5	90556	17.31	36.55
5	91113	17.41	36.55
5	91670	17.51	36.55
5	92227	17.61	36.55
5	92784	17.71	36.55
5	93341	17.81	36.55
5	93898	17.91	36.55
5	94463	18.01	36.55
5	95020	18.11	36.55
5	95577	18.21	36.55
5	96134	18.31	36.55
5	96691	18.41	36.55
5	97248	18.51	36.55
5	97805	18.61	36.55
5	98362	18.71	36.55
5	98919	18.81	36.55
5	99476	18.91	36.55
5	100041	19.01	36.55
5	100598	19.11	36.55
5	101155	19.21	36.55
5	101712	19.31	36.55
5	102269	19.41	36.55
5	102826	19.51	36.55
5	103383	19.61	36.55
5	103940	19.71	36.55
5	104497	19.81	36.55
5	105054	19.91	36.55
5	105619	20.01	36.55
5	106176	20.11	36.55
5	106733	20.21	36.55
5	107290	20.31	36.55
5	107847	20.41	36.55
5	108404	20.51	36.55
5	108961	20.61	36.55
5	109518	20.71	36.55
5	110075	20.81	36.55
5	110632	20.91	36.55
5	111197	21.01	36.55
5	111754	21.11	36.55
5	112311	21.21	36.55
5	112868	21.31	36.55
5	113425	21.41	36.55
5	113982	21.51	36.55
5	114539	21.61	36.55
5	115096	21.71	36.55
5	115653	21.81	36.55
5	116210	21.91	36.55
5	116775	22.01	36.55
5	117332	22.11	36.55
5	117889	22.21	36.55
5	118446	22.31	36.55
5	119003	22.41	36.55
5	119560	22.51	36.55
5	120117	22.61	36.55
5	120674	22.71	36.55
5	121231	22.81	36.55
5	121788	22.91	36.55
5	122353	23.01	36.55
5	122910	23.11	36.55
5	123467	23.21	36.55
5	124024	23.31	36.55
5	124581	23.41	36.55
5	125138	23.51	36.55
5	125695	23.61	36.55
5	126252	23.71	36.55
5	126809	23.81	36.55
5	127366	23.91	36.55
5	127931	24.01	36.55
5	128488	24.11	36.55
5	129045	24.21	36.55
5	129602	24.31	36.55
5	130159	24.41	36.55
5	130716	24.51	36.55
5	131273	24.61	36.55
5	131830	24.71	36.55
5	132387	24.81	36.55
5	132944	24.91	36.55
5	133509	25.01	36.55
5	134066	25.11	36.55
5	134623	25.21	36.55
5	135180	25.31	36.55
5	135737	25.41	36.55
5	136294	25.51	36.55
5	136851	25.61	36.55
5	137408	25.71	36.55
5	137965	25.81	36.55
5	138522	25.91	36.55
5	139087	26.01	36.55
5	139644	26.11	36.55
5	140201	26.21	36.55
5	140758	26.31	36.55
5	141315	26.41	36.55
5	141872	26.51	36.55
5	142429	26.61	36.55
5	142986	26.71	36.55
5	143543	26.81	36.55
5	144100	26.91	36.55
5	144665	27.01	36.55
5	145222	27.11	36.55
5	145779	27.21	36.55
5	146336	27.31	36.55
5	146893	27.41	36.55
5	147450	27.51	36.55
5	148007	27.61	36.55
5	148564	27.71	36.55
5	149121	27.81	36.55
5	149678	27.91	36.55
5	150243	28.01	36.55
5	150800	28.11	36.55
5	151357	28.21	36.55
5	151914	28.31	36.55
5	152471	28.41	36.55
5	153028	28.51	36.55
5	153585	28.61	36.55
5	154142	28.71	36.55
5	154699	28.81	36.55
5	155256	28.91	36.55
5	155821	29.01	36.55
5	156378	29.11	36.55
5	156935	29.21	36.55
5	157492	29.31	36.55
5	158049	29.41	36.55
5	158606	29.51	36.55
5	159163	29.61	36.55
5	159720	29.71	36.55
5	160277	29.81	36.55
5	160834	29.91	36.55
5	161399	30.01	36.55
5	161956	30.11	36.55
5	162513	30.21	36.55
5	163070	30.31	36.55
5	163627	30.41	36.55
5	164184	30.51	36.55
5	164741	30.61	36.55
5	165298	30.71	36.55
5	165855	30.81	36.55
5	166412	30.91	36.55
5	166977	31.01	36.55
5	167534	31.11	36.55
5	168091	31.21	36.55
5	168648	31.31	36.55
5	169205	31.41	36.55
5	169762	31.51	36.55
5	170319	31.61	36.55
5	170876	31.71	36.55
5	171433	31.81	36.55
5	171990	31.91	36.55
5	172555	32.01	36.55
5	173112	32.11	36.55
5	173669	32.21	36.55
5	174226	32.31	36.55
5	174783	32.41	36.55
5	175340	32.51	36.55
5	175897	32.61	36.55
4	232	1.11	97.828754043446
4	788	1.21	99.21764297384
4	1344	1.31	100.60653190288
4	1900	1.41	101.99542083008
4	2456	1.51	103.38430975509
4	3012	1.61	104.77319867765
4	3568	1.71	106.16208759761
4	4124	1.81	107.55097651486
4	4680	1.91	108.93986542939
4	5244	2.01	110.32875434123
4	5800	2.11	111.71764325045
4	6356	2.21	113.10653215715
4	6912	2.31	114.49542106147
4	7468	2.41	115.88430996356
4	8024	2.51	117.27319886358
4	8580	2.61	118.66208776171
4	9136	2.71	120.05097665812
4	9692	2.81	121.43986555297
4	10248	2.91	122.82875444646
4	10812	3.01	124.21764333873
4	11368	3.11	125.60653222995
4	11924	3.21	126.99542112026
4	12480	3.31	128.3843100098
4	13036	3.41	129.7731988987
4	13592	3.51	131.16208778708
4	14148	3.61	132.55097667503
4	14704	3.71	133.93986556264
4	15260	3.81	135.32875445002
4	15816	3.91	136.71764333721
4	16380	4.01	138.10653222429
4	16936	4.11	139.49542111131
4	17492	4.21	140.88430999831
4	18048	4.31	142.27319888533
4	18604	4.41	143.6620877724
4	19160	4.51	145.05097665955
4	19716	4.61	146.43986554678
4	20272	4.71	147.82875443412
4	20828	4.81	149.21764332158
4	21384	4.91	150.60653220915
4	21949	5.01	151.99542109685
4	22506	5.11	153.38431134995
4	23063	5.21	154.77342810488
4	23620	5.31	156.1635449533
4	24177	5.41	157.55588652287
4	24734	5.51	158.95200279728
4	25291	5.61	160.35362863896
4	25848	5.71	161.7624495324
4	26405	5.81	163.17986751804
4	26962	5.91	164.60703288914
4	27527	6.01	166.04488928684
4	28084	6.11	167.49421082553
4	28641	6.21	168.95563254864
4	29198	6.31	170.42967541297
4	29755	6.41	171.91676678455
4	30312	6.51	173.41725722069
4	30869	6.61	174.93140447131
4	31426	6.71	176.45916210347
4	31983	6.81	178.00000360062
4	32540	6.91	179.55294018642
4	33105	7.01	181.11655714808
4	33662	7.11	182.68905737109
4	34219	7.21	184.26831092951
4	34776	7.31	185.85190956399
4	35333	7.41	187.43722533756
4	35890	7.51	189.02154532299
4	36447	7.61	190.60237171391
4	37004	7.71	192.17763736501
4	37561	7.81	193.74564649715
4	38118	7.91	195.3050079808
4	38683	8.01	196.85458060522
4	39240	8.11	198.39342818009
4	39797	8.21	199.92078270331
4	40354	8.31	201.43601414565
4	40911	8.41	202.93860566368
4	41468	8.51	204.42813326581
4	42025	8.61	205.90424913123
4	42582	8.71	207.36666792574
4	43139	8.81	208.81515557591
4	43696	8.91	210.24952006002
4	44261	9.01	211.66960385334
4	44818	9.11	213.07527773076
4	45375	9.21	214.46643568267
4	45932	9.31	215.84299074426
4	46489	9.41	217.2048715741
4	47046	9.51	218.55202191018
4	47603	9.61	219.88463705288
4	48160	9.71	221.20357832352
4	48717	9.81	222.51033748449
4	49274	9.91	223.80693164886
4	49839	10.01	225.09579865611
4	50396	10.11	226.3796942231
4	50953	10.21	227.66159110907
4	51510	10.31	228.94441752794
4	52067	10.41	230.23069478887
4	52624	10.51	231.52249771771
4	53181	10.61	232.82152839433
4	53738	10.71	234.12918311705
4	54295	10.81	235.44660733683
4	54852	10.91	236.77474072242
4	55417	11.01	238.11435412947
4	55974	11.11	239.46607992812
4	56531	11.21	240.83043688212
4	57088	11.31	242.20785055844
4	57645	11.41	243.59867007021
4	58202	11.51	245.00318181182
4	58759	11.61	246.4216207264
4	59316	11.71	247.85417954913
4	59873	11.81	249.30101639003
4	60430	11.91	250.76224615494
4	60995	12.01	252.23766381411
4	61552	12.11	253.72642405154
4	62109	12.21	255.22709776592
4	62666	12.31	256.73775906661
4	63223	12.41	258.25607406487
4	63780	12.51	259.77939009709
4	64337	12.61	261.30482495509
4	64894	12.71	262.82948988972
4	65451	12.81	264.35083912655
4	66008	12.91	265.86677356083
4	66573	13.01	267.37557119555
4	67130	13.11	268.87581939337
4	67687	13.21	270.36635929966
4	68244	13.31	271.84624025001
4	68801	13.41	273.31468236846
4	69358	13.51	274.77104588512
4	69915	13.61	276.21480596583
4	70472	13.71	277.64553206378
4	71029	13.81	279.06287098063
4	71586	13.91	280.46653297073
4	72151	14.01	281.85628034171
4	72708	14.11	283.23191810306
4	73265	14.21	284.59328629463
4	73822	14.31	285.9402536934
4	74379	14.41	287.27271343182
4	74936	14.51	288.59073204774
4	75493	14.61	289.89492484719
4	76050	14.71	291.18653556479
4	76607	14.81	292.46735001788
4	77164	14.91	293.73960169066
4	77729	15.01	295.00587718523
4	78286	15.11	296.26902241996
4	78843	15.21	297.53198026861
4	79400	15.31	298.79745988439
4	79957	15.41	300.06770300306
4	80514	15.51	301.34454862872
4	81071	15.61	302.62950538527
4	81628	15.71	303.92381086976
4	82185	15.81	305.22848034282
4	82742	15.91	306.54434667179
4	83307	16.01	307.87209309796
4	83864	16.11	309.21228011719
4	84421	16.21	310.56536753127
4	84978	16.31	311.93173253785
4	85535	16.41	313.31168457035
4	86092	16.51	314.70547747198
4	86649	16.61	316.11331948256
4	87206	16.71	317.5353814313
4	87763	16.81	318.97180345762
4	88320	16.91	320.42269951021
4	88885	17.01	321.88797308507
4	89442	17.11	323.36692581196
4	89999	17.21	324.85824402962
4	90556	17.31	326.36008844123
4	91113	17.41	327.87018653472
4	91670	17.51	329.38592523554
4	92227	17.61	330.90444307628
4	92784	17.71	332.42281441184
4	93341	17.81	333.93838697808
4	93898	17.91	335.44896880314
4	94463	18.01	336.95276170667
4	95020	18.11	338.44829055446
4	95577	18.21	339.93434522268
4	96134	18.31	341.40993298828
4	96691	18.41	342.87423947261
4	97248	18.51	344.32659660154
4	97805	18.61	345.76645632158
4	98362	18.71	347.19336903797
4	98919	18.81	348.60696592644
4	99476	18.91	350.0069444226
4	100041	19.01	351.39305631829
4	100598	19.11	352.76509799635
4	101155	19.21	354.12290241979
4	101712	19.31	355.46633256013
4	102269	19.41	356.79527692496
4	102826	19.51	358.10982068022
4	103383	19.61	359.41063136288
4	103940	19.71	360.69899670711
4	104497	19.81	361.97673617264
4	105054	19.91	363.24610778609
4	105619	20.01	364.50971478672
4	106176	20.11	365.77041285278
4	106733	20.21	367.03113397624
4	107290	20.31	368.29455145323
4	107847	20.41	369.56287565474
4	108404	20.51	370.83791985489
4	108961	20.61	372.12117156999
4	109518	20.71	373.41385108153
4	110075	20.81	374.71695944536
4	110632	20.91	376.03131787592
4	111197	21.01	377.35760005511
4	111754	21.11	378.69635863672
4	112311	21.21	380.04804698934
4	112868	21.31	381.41303703314
4	113425	21.41	382.79163387216
4	113982	21.51	384.18408779804
4	114539	21.61	385.59060413704
4	115096	21.71	387.01135132826
4	115653	21.81	388.44646755039
4	116210	21.91	389.89606520945
4	116775	22.01	391.36005501323
4	117332	22.11	392.83775800199
4	117889	22.21	394.32787681553
4	118446	22.31	395.82858462676
4	119003	22.41	397.33761802675
4	119560	22.51	398.85237011893
4	120117	22.61	400.3699830688
4	120674	22.71	401.88752722904
4	121231	22.81	403.40233709461
4	121788	22.91	404.9122091107
4	122353	23.01	406.41533559485
4	122910	23.11	407.91023361784
4	123467	23.21	409.39568666122
4	124024	23.31	410.87069675612
4	124581	23.41	412.33444522049
4	125138	23.51	413.7862604499
4	125695	23.61	415.22559149479
4	126252	23.71	416.65198638464
4	126809	23.81	418.06507434619
4	127366	23.91	419.46455121623
4	127931	24.01	420.850167475
4	128488	24.11	422.22171842936
4	129045	24.21	423.57903615967
4	129602	24.31	424.92198291332
4	130159	24.41	426.25044662276
4	130716	24.51	427.56451504854
4	131273	24.61	428.86486291133
4	131830	24.71	430.15278399898
4	132387	24.81	431.43010240441
4	132944	24.91	432.69907953905
4	133509	25.01	433.96232094209
4	134066	25.11	435.22268364768
4	134623	25.21	436.48309817303
4	135180	25.31	437.74623291423
4	135737	25.41	439.01429395537
4	136294	25.51	440.2890910538
4	136851	25.61	441.57210884087
4	137408	25.71	442.8645652314
4	137965	25.81	444.16745933973
4	138522	25.91	445.48161078761
4	139087	26.01	446.80769195036
4	139644	26.11	448.14625440992
4	140201	26.21	449.4977506556
4	140758	26.31	450.86255188623
4	141315	26.41	452.24096261416
4	141872	26.51	453.63323264555
4	142429	26.61	455.03956690848
4	142986	26.71	456.46013351534
4	143543	26.81	457.89507037686
4	144100	26.91	459.34448968617
4	144665	27.01	460.80830311431
4	145222	27.11	462.28583436749
4	145779	27.21	463.77578833214
4	146336	27.31	465.27633990067
4	146893	27.41	466.78522692038
4	147450	27.51	468.29984334835
4	148007	27.61	469.81733185341
4	148564	27.71	471.33476224117
4	149121	27.81	472.8494671884
4	149678	27.91	474.35924154964
4	150243	28.01	475.86227633754
4	150800	28.11	477.3570875524
4	151357	28.21	478.8424577976
4	151914	28.31	480.3173883839
4	152471	28.41	481.78106003825
4	153028	28.51	483.23280067142
4	153585	28.61	484.67205893615
4	154142	28.71	486.09838253565
4	154699	28.81	487.51140042901
4	155256	28.91	488.91080823347
4	155821	29.01	490.29635624913
4	156378	29.11	491.66783963511
4	156935	29.21	493.02509035055
4	157492	29.31	494.36797054339
4	158049	29.41	495.69636806711
4	158606	29.51	497.01037103973
4	159163	29.61	498.31065517124
4	159720	29.71	499.59851508325
4	160277	29.81	500.87577550679
4	160834	29.91	502.14469831948
4	161399	30.01	503.40788937729
4	161956	30.11	504.66820590117
4	162513	30.21	505.92857820533
4	163070	30.31	507.19167401111
4	163627	30.41	508.45969881232
4	164184	30.51	509.73446188205
4	164741	30.61	511.01744745442
4	165298	30.71	512.30987311833
4	165855	30.81	513.61273772081
4	166412	30.91	514.92686066428
4	166977	31.01	516.25291414416
4	167534	31.11	517.5914495948
4	168091	31.21	518.94291938442
4	168648	31.31	520.30769461255
4	169205	31.41	521.68607971003
4	169762	31.51	523.0783244162
4	170319	31.61	524.4846336043
4	170876	31.71	525.90517534174
4	171433	31.81	527.34008750234
4	171990	31.91	528.78948224993
4	172555	32.01	530.2532713882
4	173112	32.11	531.73077899051
4	173669	32.21	533.22071025269
4	174226	32.31	534.72124030396
4	174783	32.41	536.23010716462
4	175340	32.51	537.74470490932
4	175897	32.61	539.26217627621
3	232	1.11	13.888889309806
3	788	1.21	13.888889299984
3	1344	1.31	13.888889284553
3	1900	1.41	13.888889264797
3	2456	1.51	13.888889241849
3	3012	1.61	13.888889216692
3	3568	1.71	13.888889190176
3	4124	1.81	13.888889163019
3	4680	1.91	13.888889135825
3	5244	2.01	13.888889109087
3	5800	2.11	13.888889083203
3	6356	2.21	13.888889058484
3	6912	2.31	13.888889035164
3	7468	2.41	13.888889013409
3	8024	2.51	13.88888899333
3	8580	2.61	13.888888974985
3	9136	2.71	13.888888958391
3	9692	2.81	13.888888943532
3	10248	2.91	13.888888930362
3	10812	3.01	13.888888918814
3	11368	3.11	13.888888908804
3	11924	3.21	13.888888900236
3	12480	3.31	13.888888893003
3	13036	3.41	13.888888886995
3	13592	3.51	13.888888882101
3	14148	3.61	13.888888878208
3	14704	3.71	13.888888875206
3	15260	3.81	13.888888872989
3	15816	3.91	13.888888871455
3	16380	4.01	13.888888870509
3	16936	4.11	13.888888870063
3	17492	4.21	13.888888870035
3	18048	4.31	13.88888887035
3	18604	4.41	13.888888870941
3	19160	4.51	13.888888871748
3	19716	4.61	13.888888872717
3	20272	4.71	13.888888873802
3	20828	4.81	13.888888874963
3	21384	4.91	13.888888876165
3	21949	5.01	13.888888877379
3	22506	5.11	13.88895714287
3	23063	5.21	13.8931707169
3	23620	5.31	13.906886981158
3	24177	5.41	13.934167403487
3	24734	5.51	13.977833057683
3	25291	5.61	14.039174898244
3	25848	5.71	14.116438827352
3	26405	5.81	14.206769915256
3	26962	5.91	14.307820624663
3	27527	6.01	14.417665157344
3	28084	6.11	14.534723687999
3	28641	6.21	14.657700209627
3	29198	6.31	14.785531545087
3	29755	6.41	14.917345518821
3	30312	6.51	15.052425059448
3	30869	6.61	15.189500093972
3	31426	6.71	15.324463010101
3	31983	6.81	15.452496243768
3	32540	6.91	15.569092845265
3	33105	7.01	15.670136008044
3	33662	7.11	15.751967163808
3	34219	7.21	15.811442461837
3	34776	7.31	15.845977552212
3	35333	7.41	15.853603639796
3	35890	7.51	15.834314677718
3	36447	7.61	15.791543255453
3	37004	7.71	15.729508036896
3	37561	7.81	15.651669795801
3	38118	7.91	15.560867572035
3	38683	8.01	15.459430367125
3	39240	8.11	15.349268773515
3	39797	8.21	15.231950142466
3	40354	8.31	15.108760247923
3	40911	8.41	14.980753872353
3	41468	8.51	14.848796304763
3	42025	8.61	14.713597383517
3	42582	8.71	14.575739423308
3	43139	8.81	14.435700125008
3	43696	8.91	14.293871369713
3	44261	9.01	14.150574636415
3	44818	9.11	14.006073649857
3	45375	9.21	13.860584756185
3	45932	9.31	13.714285434593
3	46489	9.41	13.567321279832
3	47046	9.51	13.419909418317
3	47603	9.61	13.276568052228
3	48160	9.71	13.144199549998
3	48717	9.81	13.028740637906
3	49274	9.91	12.935077207518
3	49839	10.01	12.867053163966
3	50396	10.11	12.827492798447
3	50953	10.21	12.818184012284
3	51510	10.31	12.836987312871
3	52067	10.41	12.879360323559
3	52624	10.51	12.941068705856
3	53181	10.61	13.01863882738
3	53738	10.71	13.109221099712
3	54295	10.81	13.210477867837
3	54852	10.91	13.320491440438
3	55417	11.01	13.437688642703
3	55974	11.11	13.56077892335
3	56531	11.21	13.688703580829
3	57088	11.31	13.820594111122
3	57645	11.41	13.955738038437
3	58202	11.51	14.093550884467
3	58759	11.61	14.233553173427
3	59316	11.71	14.375351568173
3	59873	11.81	14.518623395246
3	60430	11.91	14.66269730263
3	60995	12.01	14.802538408274
3	61552	12.11	14.931758497807
3	62109	12.21	15.044820373205
3	62666	12.31	15.137065146099
3	63223	12.41	15.204725281664
3	63780	12.51	15.244924342721
3	64337	12.61	15.255706566207
3	64894	12.71	15.238438484058
3	65451	12.81	15.197324887205
3	66008	12.91	15.136649662907
3	66573	13.01	15.05992709079
3	67130	13.11	14.970040104174
3	67687	13.21	14.869353712503
3	68244	13.31	14.759808047257
3	68801	13.41	14.642994691995
3	69358	13.51	14.520219299584
3	69915	13.61	14.392552960135
3	70472	13.71	14.260874340597
3	71029	13.81	14.125904253911
3	71586	13.91	13.988234017746
3	72151	14.01	13.848348718545
3	72708	14.11	13.706646296149
3	73265	14.21	13.56345319983
3	73822	14.31	13.419037231692
3	74379	14.41	13.273657135565
3	74936	14.51	13.130441982788
3	75493	14.61	12.995670307401
3	76050	14.71	12.875370078417
3	76607	14.81	12.774633040977
3	77164	14.91	12.697604313193
3	77729	15.01	12.647485799739
3	78286	15.11	12.626530819682
3	78843	15.21	12.634779968798
3	79400	15.31	12.66849489927
3	79957	15.41	12.723100640181
3	80514	15.51	12.79484412192
3	81071	15.61	12.88064652021
3	81628	15.71	12.977982126792
3	82185	15.81	13.084778981187
3	82742	15.91	13.199337354141
3	83307	16.01	13.320262875649
3	83864	16.11	13.446411676648
3	84421	16.21	13.576845386097
3	84978	16.31	13.71079421291
3	85535	16.41	13.847626660274
3	86092	16.51	13.986824680856
3	86649	16.61	14.127963295405
3	87206	16.71	14.270693872916
3	87763	16.81	14.414730414535
3	88320	16.91	14.559787728906
3	88885	17.01	14.702082559026
3	89442	17.11	14.835117319103
3	89999	17.21	14.95304189545
3	90556	17.31	15.050921902539
3	91113	17.41	15.124749945874
3	91670	17.51	15.171443265846
3	92227	17.61	15.188857753955
3	92784	17.71	15.177461901473
3	93341	17.81	15.141165578244
3	93898	17.91	15.084442196173
3	94463	18.01	15.010961511109
3	95020	18.11	14.923734001024
3	95577	18.21	14.825229306406
3	96134	18.31	14.717473392626
3	96691	18.41	14.602128256938
3	97248	18.51	14.480557315958
3	97805	18.61	14.353879046192
3	98362	18.71	14.223010987939
3	98919	18.81	14.088705843826
3	99476	18.91	13.951581092168
3	100041	19.01	13.812143280257
3	100598	19.11	13.670807953298
3	101155	19.21	13.527916003097
3	101712	19.31	13.383747079665
3	102269	19.41	13.23857652977
3	102826	19.51	13.095945007457
3	103383	19.61	12.962270845178
3	103940	19.71	12.843470007216
3	104497	19.81	12.744535147797
3	105054	19.91	12.669524665226
3	105619	20.01	12.621565448378
3	106176	20.11	12.602842059212
3	106733	20.21	12.613074483492
3	107290	20.31	12.648416390373
3	107847	20.41	12.704356818615
3	108404	20.51	12.777195208837
3	108961	20.61	12.863895813439
3	109518	20.71	12.961968262042
3	110075	20.81	13.069369583537
3	110632	20.91	13.184423830048
3	111197	21.01	13.305756140585
3	111754	21.11	13.432238650273
3	112311	21.21	13.562946117079
3	112868	21.31	13.697119520272
3	113425	21.41	13.834136198489
3	113982	21.51	13.973485352538
3	114539	21.61	14.114747949169
3	115096	21.71	14.25758023517
3	115653	21.81	14.401700213177
3	116210	21.91	14.546829114103
3	116775	22.01	14.689336934087
3	117332	22.11	14.822775023755
3	117889	22.21	14.941251840502
3	118446	22.31	15.039796341815
3	119003	22.41	15.114369048335
3	119560	22.51	15.161859441787
3	120117	22.61	15.180097968285
3	120674	22.71	15.169434538294
3	121231	22.81	15.13373905661
3	121788	22.91	15.07750857388
3	122353	23.01	15.004432237952
3	122910	23.11	14.917536434993
3	123467	23.21	14.819303855751
3	124024	23.31	14.711771171359
3	124581	23.41	14.596609161518
3	125138	23.51	14.475188447516
3	125695	23.61	14.348633416197
3	126252	23.71	14.217866456394
3	126809	23.81	14.083644248221
3	127366	23.91	13.946587532923
3	127931	24.01	13.807205534522
3	128488	24.11	13.665915994083
3	129045	24.21	13.523061604774
3	129602	24.31	13.378923494356
3	130159	24.41	13.233779163163
3	130716	24.51	13.091225460604
3	131273	24.61	12.957699786749
3	131830	24.71	12.839102746868
3	132387	24.81	12.74041340342
3	132944	24.91	12.665678256479
3	133509	25.01	12.618013899389
3	134066	25.11	12.599595455496
3	134623	25.21	12.61009895213
3	135180	25.31	12.645663232756
3	135737	25.41	12.701786084922
3	136294	25.51	12.774774126299
3	136851	25.61	12.861597496972
3	137408	25.71	12.959770656513
3	137965	25.81	13.067254596054
3	138522	25.91	13.182376618139
3	139087	26.01	13.303764528253
3	139644	26.11	13.43029264896
3	140201	26.21	13.561037532686
3	140758	26.31	13.695241630788
3	141315	26.41	13.83228348952
3	141872	26.51	13.971653300362
3	142429	26.61	14.112932842758
3	142986	26.71	14.255779030189
3	143543	26.81	14.39991041221
3	144100	26.91	14.545049017674
3	144665	27.01	14.687585693517
3	145222	27.11	14.821078865042
3	145779	27.21	14.939631290159
3	146336	27.31	15.03826688263
3	146893	27.41	15.112941747789
3	147450	27.51	15.160541546767
3	148007	27.61	15.17889322306
3	148564	27.71	15.168330374919
3	149121	27.81	15.132717405387
3	149678	27.91	15.076554611359
3	150243	28.01	15.003533803743
3	150800	28.11	14.91668355334
3	151357	28.21	14.818488343061
3	151914	28.31	14.710986314233
3	152471	28.41	14.595849452632
3	153028	28.51	14.474449368947
3	153585	28.61	14.347911261671
3	154142	28.71	14.21715818548
3	154699	28.81	14.082947366705
3	155256	28.91	13.945899994678
3	155821	29.01	13.806525661016
3	156378	29.11	13.665242408331
3	156935	29.21	13.522393177171
3	157492	29.31	13.378259298231
3	158049	29.41	13.23311856794
3	158606	29.51	13.090575573438
3	159163	29.61	12.957070340203
3	159720	29.71	12.838501358414
3	160277	29.81	12.739845818791
3	160834	29.91	12.665148582879
3	161399	30.01	12.617524826186
3	161956	30.11	12.59914837223
3	162513	30.21	12.609689194843
3	163070	30.31	12.645284095771
3	163627	30.41	12.701432067251
3	164184	30.51	12.774440715214
3	164741	30.61	12.861280990466
3	165298	30.71	12.959468017648
3	165855	30.81	13.066963333485
3	166412	30.91	13.182094688096
3	166977	31.01	13.303490254132
3	167534	31.11	13.43002465536
3	168091	31.21	13.560774691303
3	168648	31.31	13.694983016015
3	169205	31.41	13.832028342041
3	169762	31.51	13.971400997271
3	170319	31.61	14.112682873057
3	170876	31.71	14.255530974679
3	171433	31.81	14.399663927005
3	171990	31.91	14.544803868766
3	172555	32.01	14.687344518393
3	173112	32.11	14.82084527549
3	173669	32.21	14.939408113045
3	174226	32.31	15.038056250216
3	174783	32.41	15.112745184271
3	175340	32.51	15.16036005018
3	175897	32.61	15.178727309066
1	232	1.11	0
1	788	1.21	0
1	1344	1.31	0
1	1900	1.41	0
1	2456	1.51	0
1	3012	1.61	0
1	3568	1.71	0
1	4124	1.81	0
1	4680	1.91	0
1	5244	2.01	0
1	5800	2.11	0
1	6356	2.21	0
1	6912	2.31	0
1	7468	2.41	0
1	8024	2.51	0
1	8580	2.61	0
1	9136	2.71	0
1	9692	2.81	0
1	10248	2.91	0
1	10812	3.01	0
1	11368	3.11	0
1	11924	3.21	0
1	12480	3.31	0
1	13036	3.41	0
1	13592	3.51	0
1	14148	3.61	0
1	14704	3.71	0
1	15260	3.81	0
1	15816	3.91	0
1	16380	4.01	0
1	16936	4.11	0
1	17492	4.21	0
1	18048	4.31	0
1	18604	4.41	0
1	19160	4.51	0
1	19716	4.61	0
1	20272	4.71	0
1	20828	4.81	0
1	21384	4.91	0
1	21949	5.01	0
1	22506	5.11	0
1	23063	5.21	0
1	23620	5.31	0
1	24177	5.41	0
1	24734	5.51	0
1	25291	5.61	0
1	25848	5.71	0
1	26405	5.81	0
1	26962	5.91	0
1	27527	6.01	0
1	28084	6.11	0
1	28641	6.21	0
1	29198	6.31	0
1	29755	6.41	0
1	30312	6.51	0
1	30869	6.61	0
1	31426	6.71	0
1	31983	6.81	0
1	32540	6.91	0
1	33105	7.01	0
1	33662	7.11	0
1	34219	7.21	0
1	34776	7.31	0
1	35333	7.41	0
1	35890	7.51	0
1	36447	7.61	0
1	37004	7.71	0
1	37561	7.81	0
1	38118	7.91	0
1	38683	8.01	0
1	39240	8.11	0
1	39797	8.21	0
1	40354	8.31	0
1	40911	8.41	0
1	41468	8.51	0
1	42025	8.61	0
1	42582	8.71	0
1	43139	8.81	0
1	43696	8.91	0
1	44261	9.01	0
1	44818	9.11	0
1	45375	9.21	0
1	45932	9.31	0
1	46489	9.41	0
1	47046	9.51	0
1	47603	9.61	0
1	48160	9.71	0
1	48717	9.81	0
1	49274	9.91	0
1	49839	10.01	0
1	50396	10.11	0
1	50953	10.21	0
1	51510	10.31	0
1	52067	10.41	0
1	52624	10.51	0
1	53181	10.61	0
1	53738	10.71	0
1	54295	10.81	0
1	54852	10.91	0
1	55417	11.01	0
1	55974	11.11	0
1	56531	11.21	0
1	57088	11.31	0
1	57645	11.41	0
1	58202	11.51	0
1	58759	11.61	0
1	59316	11.71	0
1	59873	11.81	0
1	60430	11.91	0
1	60995	12.01	0
1	61552	12.11	0
1	62109	12.21	0
1	62666	12.31	0
1	63223	12.41	0
1	63780	12.51	0
1	64337	12.61	0
1	64894	12.71	0
1	65451	12.81	0
1	66008	12.91	0
1	66573	13.01	0
1	67130	13.11	0
1	67687	13.21	0
1	68244	13.31	0
1	68801	13.41	0
1	69358	13.51	0
1	69915	13.61	0
1	70472	13.71	0
1	71029	13.81	0
1	71586	13.91	0
1	72151	14.01	0
1	72708	14.11	0
1	73265	14.21	0
1	73822	14.31	0
1	74379	14.41	0
1	74936	14.51	0
1	75493	14.61	0
1	76050	14.71	0
1	76607	14.81	0
1	77164	14.91	0
1	77729	15.01	0
1	78286	15.11	0
1	78843	15.21	0
1	79400	15.31	0
1	79957	15.41	0
1	80514	15.51	0
1	81071	15.61	0
1	81628	15.71	0
1	82185	15.81	0
1	82742	15.91	0
1	83307	16.01	0
1	83864	16.11	0
1	84421	16.21	0
1	84978	16.31	0
1	85535	16.41	0
1	86092	16.51	0
1	86649	16.61	0
1	87206	16.71	0
1	87763	16.81	0
1	88320	16.91	0
1	88885	17.01	0
1	89442	17.11	0
1	89999	17.21	0
1	90556	17.31	0
1	91113	17.41	0
1	91670	17.51	0
1	92227	17.61	0
1	92784	17.71	0
1	93341	17.81	0
1	93898	17.91	0
1	94463	18.01	0
1	95020	18.11	0
1	95577	18.21	0
1	96134	18.31	0
1	96691	18.41	0
1	97248	18.51	0
1	97805	18.61	0
1	98362	18.71	0
1	98919	18.81	0
1	99476	18.91	0
1	100041	19.01	0
1	100598	19.11	0
1	101155	19.21	0
1	101712	19.31	0
1	102269	19.41	0
1	102826	19.51	0
1	103383	19.61	0
1	103940	19.71	0
1	104497	19.81	0
1	105054	19.91	0
1	105619	20.01	0
1	106176	20.11	0
1	106733	20.21	0
1	107290	20.31	0
1	107847	20.41	0
1	108404	20.51	0
1	108961	20.61	0
1	109518	20.71	0
1	110075	20.81	0
1	110632	20.91	0
1	111197	21.01	0
1	111754	21.11	0
1	112311	21.21	0
1	112868	21.31	0
1	113425	21.41	0
1	113982	21.51	0
1	114539	21.61	0
1	115096	21.71	0
1	115653	21.81	0
1	116210	21.91	0
1	116775	22.01	0
1	117332	22.11	0
1	117889	22.21	0
1	118446	22.31	0
1	119003	22.41	0
1	119560	22.51	0
1	120117	22.61	0
1	120674	22.71	0
1	121231	22.81	0
1	121788	22.91	0
1	122353	23.01	0
1	122910	23.11	0
1	123467	23.21	0
1	124024	23.31	0
1	124581	23.41	0
1	125138	23.51	0
1	125695	23.61	0
1	126252	23.71	0
1	126809	23.81	0
1	127366	23.91	0
1	127931	24.01	0
1	128488	24.11	0
1	129045	24.21	0
1	129602	24.31	0
1	130159	24.41	0
1	130716	24.51	0
1	131273	24.61	0
1	131830	24.71	0
1	132387	24.81	0
1	132944	24.91	0
1	133509	25.01	0
1	134066	25.11	0
1	134623	25.21	0
1	135180	25.31	0
1	135737	25.41	0
1	136294	25.51	0
1	136851	25.61	0
1	137408	25.71	0
1	137965	25.81	0
1	138522	25.91	0
1	139087	26.01	0
1	139644	26.11	0
1	140201	26.21	0
1	140758	26.31	0
1	141315	26.41	0
1	141872	26.51	0
1	142429	26.61	0
1	142986	26.71	0
1	143543	26.81	0
1	144100	26.91	0
1	144665	27.01	0
1	145222	27.11	0
1	145779	27.21	0
1	146336	27.31	0
1	146893	27.41	0
1	147450	27.51	0
1	148007	27.61	0
1	148564	27.71	0
1	149121	27.81	0
1	149678	27.91	0
1	150243	28.01	0
1	150800	28.11	0
1	151357	28.21	0
1	151914	28.31	0
1	152471	28.41	0
1	153028	28.51	0
1	153585	28.61	0
1	154142	28.71	0
1	154699	28.81	0
1	155256	28.91	0
1	155821	29.01	0
1	156378	29.11	0
1	156935	29.21	0
1	157492	29.31	0
1	158049	29.41	0
1	158606	29.51	0
1	159163	29.61	0
1	159720	29.71	0
1	160277	29.81	0
1	160834	29.91	0
1	161399	30.01	0
1	161956	30.11	0
1	162513	30.21	0
1	163070	30.31	0
1	163627	30.41	0
1	164184	30.51	0
1	164741	30.61	0
1	165298	30.71	0
1	165855	30.81	0
1	166412	30.91	0
1	166977	31.01	0
1	167534	31.11	0
1	168091	31.21	0
1	168648	31.31	0
1	169205	31.41	0
1	169762	31.51	0
1	170319	31.61	0
1	170876	31.71	0
1	171433	31.81	0
1	171990	31.91	0
1	172555	32.01	0
1	173112	32.11	0
1	173669	32.21	0
1	174226	32.31	0
1	174783	32.41	0
1	175340	32.51	0
1	175897	32.61	0
0	232	1.11	-1
0	788	1.21	-1
0	1344	1.31	-1
0	1900	1.41	-1
0	2456	1.51	-1
0	3012	1.61	-1
0	3568	1.71	-1
0	4124	1.81	-1
0	4680	1.91	-1
0	5244	2.01	-1
0	5800	2.11	-1
0	6356	2.21	-1
0	6912	2.31	-1
0	7468	2.41	-1
0	8024	2.51	-1
0	8580	2.61	-1
0	9136	2.71	-1
0	9692	2.81	-1
0	10248	2.91	-1
0	10812	3.01	-1
0	11368	3.11	-1
0	11924	3.21	-1
0	12480	3.31	-1
0	13036	3.41	-1
0	13592	3.51	-1
0	14148	3.61	-1
0	14704	3.71	-1
0	15260	3.81	-1
0	15816	3.91	-1
0	16380	4.01	-1
0	16936	4.11	-1
0	17492	4.21	-1
0	18048	4.31	-1
0	18604	4.41	-1
0	19160	4.51	-1
0	19716	4.61	-1
0	20272	4.71	-1
0	20828	4.81	-1
0	21384	4.91	-1
0	21949	5.01	-1
0	22506	5.11	-1
0	23063	5.21	-1
0	23620	5.31	-1
0	24177	5.41	-1
0	24734	5.51	-1
0	25291	5.61	-1
0	25848	5.71	-1
0	26405	5.81	-1
0	26962	5.91	-1
0	27527	6.01	-1
0	28084	6.11	-1
0	28641	6.21	-1
0	29198	6.31	-1
0	29755	6.41	-1
0	30312	6.51	-1
0	30869	6.61	-1
0	31426	6.71	-1
0	31983	6.81	-1
0	32540	6.91	-1
0	33105	7.01	-1
0	33662	7.11	-1
0	34219	7.21	-1
0	34776	7.31	-1
0	35333	7.41	-1
0	35890	7.51	-1
0	36447	7.61	-1
0	37004	7.71	-1
0	37561	7.81	-1
0	38118	7.91	-1
0	38683	8.01	-1
0	39240	8.11	-1
0	39797	8.21	-1
0	40354	8.31	-1
0	40911	8.41	-1
0	41468	8.51	-1
0	42025	8.61	-1
0	42582	8.71	-1
0	43139	8.81	-1
0	43696	8.91	-1
0	44261	9.01	-1
0	44818	9.11	-1
0	45375	9.21	-1
0	45932	9.31	-1
0	46489	9.41	-1
0	47046	9.51	-1
0	47603	9.61	-1
0	48160	9.71	-1
0	48717	9.81	-1
0	49274	9.91	-1
0	49839	10.01	-1
0	50396	10.11	-1
0	50953	10.21	-1
0	51510	10.31	-1
0	52067	10.41	-1
0	52624	10.51	-1
0	53181	10.61	-1
0	53738	10.71	-1
0	54295	10.81	-1
0	54852	10.91	-1
0	55417	11.01	-1
0	55974	11.11	-1
0	56531	11.21	-1
0	57088	11.31	-1
0	57645	11.41	-1
0	58202	11.51	-1
0	58759	11.61	-1
0	59316	11.71	-1
0	59873	11.81	-1
0	60430	11.91	-1
0	60995	12.01	-1
0	61552	12.11	-1
0	62109	12.21	-1
0	62666	12.31	-1
0	63223	12.41	-1
0	63780	12.51	-1
0	64337	12.61	-1
0	64894	12.71	-1
0	65451	12.81	-1
0	66008	12.91	-1
0	66573	13.01	-1
0	67130	13.11	-1
0	67687	13.21	-1
0	68244	13.31	-1
0	68801	13.41	-1
0	69358	13.51	-1
0	69915	13.61	-1
0	70472	13.71	-1
0	71029	13.81	-1
0	71586	13.91	-1
0	72151	14.01	-1
0	72708	14.11	-1
0	73265	14.21	-1
0	73822	14.31	-1
0	74379	14.41	-1
0	74936	14.51	-1
0	75493	14.61	-1
0	76050	14.71	-1
0	76607	14.81	-1
0	77164	14.91	-1
0	77729	15.01	-1
0	78286	15.11	-1
0	78843	15.21	-1
0	79400	15.31	-1
0	79957	15.41	-1
0	80514	15.51	-1
0	81071	15.61	-1
0	81628	15.71	-1
0	82185	15.81	-1
0	82742	15.91	-1
0	83307	16.01	-1
0	83864	16.11	-1
0	84421	16.21	-1
0	84978	16.31	-1
0	85535	16.41	-1
0	86092	16.51	-1
0	86649	16.61	-1
0	87206	16.71	-1
0	87763	16.81	-1
0	88320	16.91	-1
0	88885	17.01	-1
0	89442	17.11	-1
0	89999	17.21	-1
0	90556	17.31	-1
0	91113	17.41	-1
0	91670	17.51	-1
0	92227	17.61	-1
0	92784	17.71	-1
0	93341	17.81	-1
0	93898	17.91	-1
0	94463	18.01	-1
0	95020	18.11	-1
0	95577	18.21	-1
0	96134	18.31	-1
0	96691	18.41	-1
0	97248	18.51	-1
0	97805	18.61	-1
0	98362	18.71	-1
0	98919	18.81	-1
0	99476	18.91	-1
0	100041	19.01	-1
0	100598	19.11	-1
0	101155	19.21	-1
0	101712	19.31	-1
0	102269	19.41	-1
0	102826	19.51	-1
0	103383	19.61	-1
0	103940	19.71	-1
0	104497	19.81	-1
0	105054	19.91	-1
0	105619	20.01	-1
0	106176	20.11	-1
0	106733	20.21	-1
0	107290	20.31	-1
0	107847	20.41	-1
0	108404	20.51	-1
0	108961	20.61	-1
0	109518	20.71	-1
0	110075	20.81	-1
0	110632	20.91	-1
0	111197	21.01	-1
0	111754	21.11	-1
0	112311	21.21	-1
0	112868	21.31	-1
0	113425	21.41	-1
0	113982	21.51	-1
0	114539	21.61	-1
0	115096	21.71	-1
0	115653	21.81	-1
0	116210	21.91	-1
0	116775	22.01	-1
0	117332	22.11	-1
0	117889	22.21	-1
0	118446	22.31	-1
0	119003	22.41	-1
0	119560	22.51	-1
0	120117	22.61	-1
0	120674	22.71	-1
0	121231	22.81	-1
0	121788	22.91	-1
0	122353	23.01	-1
0	122910	23.11	-1
0	123467	23.21	-1
0	124024	23.31	-1
0	124581	23.41	-1
0	125138	23.51	-1
0	125695	23.61	-1
0	126252	23.71	-1
0	126809	23.81	-1
0	127366	23.91	-1
0	127931	24.01	-1
0	128488	24.11	-1
0	129045	24.21	-1
0	129602	24.31	-1
0	130159	24.41	-1
0	130716	24.51	-1
0	131273	24.61	-1
0	131830	24.71	-1
0	132387	24.81	-1
0	132944	24.91	-1
0	133509	25.01	-1
0	134066	25.11	-1
0	134623	25.21	-1
0	135180	25.31	-1
0	135737	25.41	-1
0	136294	25.51	-1
0	136851	25.61	-1
0	137408	25.71	-1
0	137965	25.81	-1
0	138522	25.91	-1
0	139087	26.01	-1
0	139644	26.11	-1
0	140201	26.21	-1
0	140758	26.31	-1
0	141315	26.41	-1
0	141872	26.51	-1
0	142429	26.61	-1
0	142986	26.71	-1
0	143543	26.81	-1
0	144100	26.91	-1
0	144665	27.01	-1
0	145222	27.11	-1
0	145779	27.21	-1
0	146336	27.31	-1
0	146893	27.41	-1
0	147450	27.51	-1
0	148007	27.61	-1
0	148564	27.71	-1
0	149121	27.81	-1
0	149678	27.91	-1
0	150243	28.01	-1
0	150800	28.11	-1
0	151357	28.21	-1
0	151914	28.31	-1
0	152471	28.41	-1
0	153028	28.51	-1
0	153585	28.61	-1
0	154142	28.71	-1
0	154699	28.81	-1
0	155256	28.91	-1
0	155821	29.01	-1
0	156378	29.11	-1
0	156935	29.21	-1
0	157492	29.31	-1
0	158049	29.41	-1
0	158606	29.51	-1
0	159163	29.61	-1
0	159720	29.71	-1
0	160277	29.81	-1
0	160834	29.91	-1
0	161399	30.01	-1
0	161956	30.11	-1
0	162513	30.21	-1
0	163070	30.31	-1
0	163627	30.41	-1
0	164184	30.51	-1
0	164741	30.61	-1
0	165298	30.71	-1
0	165855	30.81	-1
0	166412	30.91	-1
0	166977	31.01	-1
0	167534	31.11	-1
0	168091	31.21	-1
0	168648	31.31	-1
0	169205	31.41	-1
0	169762	31.51	-1
0	170319	31.61	-1
0	170876	31.71	-1
0	171433	31.81	-1
0	171990	31.91	-1
0	172555	32.01	-1
0	173112	32.11	-1
0	173669	32.21	-1
0	174226	32.31	-1
0	174783	32.41	-1
0	175340	32.51	-1
0	175897	32.61	-1
2	232	1.11	0
2	788	1.21	0
2	1344	1.31	0
2	1900	1.41	0
2	2456	1.51	0
2	3012	1.61	0
2	3568	1.71	0
2	4124	1.81	0
2	4680	1.91	0
2	5244	2.01	0
2	5800	2.11	0
2	6356	2.21	0
2	6912	2.31	0
2	7468	2.41	0
2	8024	2.51	0
2	8580	2.61	0
2	9136	2.71	0
2	9692	2.81	0
2	10248	2.91	0
2	10812	3.01	0
2	11368	3.11	0
2	11924	3.21	0
2	12480	3.31	0
2	13036	3.41	0
2	13592	3.51	0
2	14148	3.61	0
2	14704	3.71	0
2	15260	3.81	0
2	15816	3.91	0
2	16380	4.01	0
2	16936	4.11	0
2	17492	4.21	0
2	18048	4.31	0
2	18604	4.41	0
2	19160	4.51	0
2	19716	4.61	0
2	20272	4.71	0
2	20828	4.81	0
2	21384	4.91	0
2	21949	5.01	0
2	22506	5.11	0
2	23063	5.21	0
2	23620	5.31	0
2	24177	5.41	0
2	24734	5.51	0
2	25291	5.61	0
2	25848	5.71	0
2	26405	5.81	0
2	26962	5.91	0
2	27527	6.01	0
2	28084	6.11	0
2	28641	6.21	0
2	29198	6.31	0
2	29755	6.41	0
2	30312	6.51	0
2	30869	6.61	0
2	31426	6.71	0
2	31983	6.81	0
2	32540	6.91	0
2	33105	7.01	0
2	33662	7.11	0
2	34219	7.21	0
2	34776	7.31	0
2	35333	7.41	0
2	35890	7.51	0
2	36447	7.61	0
2	37004	7.71	0
2	37561	7.81	0
2	38118	7.91	0
2	38683	8.01	0
2	39240	8.11	0
2	39797	8.21	0
2	40354	8.31	0
2	40911	8.41	0
2	41468	8.51	0
2	42025	8.61	0
2	42582	8.71	0
2	43139	8.81	0
2	43696	8.91	0
2	44261	9.01	0
2	44818	9.11	0
2	45375	9.21	0
2	45932	9.31	0
2	46489	9.41	0
2	47046	9.51	0
2	47603	9.61	0
2	48160	9.71	0
2	48717	9.81	0
2	49274	9.91	0
2	49839	10.01	0
2	50396	10.11	0
2	50953	10.21	0
2	51510	10.31	0
2	52067	10.41	0
2	52624	10.51	0
2	53181	10.61	0
2	53738	10.71	0
2	54295	10.81	0
2	54852	10.91	0
2	55417	11.01	0
2	55974	11.11	0
2	56531	11.21	0
2	57088	11.31	0
2	57645	11.41	0
2	58202	11.51	0
2	58759	11.61	0
2	59316	11.71	0
2	59873	11.81	0
2	60430	11.91	0
2	60995	12.01	0
2	61552	12.11	0
2	62109	12.21	0
2	62666	12.31	0
2	63223	12.41	0
2	63780	12.51	0
2	64337	12.61	0
2	64894	12.71	0
2	65451	12.81	0
2	66008	12.91	0
2	66573	13.01	0
2	67130	13.11	0
2	67687	13.21	0
2	68244	13.31	0
2	68801	13.41	0
2	69358	13.51	0
2	69915	13.61	0
2	70472	13.71	0
2	71029	13.81	0
2	71586	13.91	0
2	72151	14.01	0
2	72708	14.11	0
2	73265	14.21	0
2	73822	14.31	0
2	74379	14.41	0
2	74936	14.51	0
2	75493	14.61	0
2	76050	14.71	0
2	76607	14.81	0
2	77164	14.91	0
2	77729	15.01	0
2	78286	15.11	0
2	78843	15.21	0
2	79400	15.31	0
2	79957	15.41	0
2	80514	15.51	0
2	81071	15.61	0
2	81628	15.71	0
2	82185	15.81	0
2	82742	15.91	0
2	83307	16.01	0
2	83864	16.11	0
2	84421	16.21	0
2	84978	16.31	0
2	85535	16.41	0
2	86092	16.51	0
2	86649	16.61	0
2	87206	16.71	0
2	87763	16.81	0
2	88320	16.91	0
2	88885	17.01	0
2	89442	17.11	0
2	89999	17.21	0
2	90556	17.31	0
2	91113	17.41	0
2	91670	17.51	0
2	92227	17.61	0
2	92784	17.71	0
2	93341	17.81	0
2	93898	17.91	0
2	94463	18.01	0
2	95020	18.11	0
2	95577	18.21	0
2	96134	18.31	0
2	96691	18.41	0
2	97248	18.51	0
2	97805	18.61	0
2	98362	18.71	0
2	98919	18.81	0
2	99476	18.91	0
2	100041	19.01	0
2	100598	19.11	0
2	101155	19.21	0
2	101712	19.31	0
2	102269	19.41	0
2	102826	19.51	0
2	103383	19.61	0
2	103940	19.71	0
2	104497	19.81	0
2	105054	19.91	0
2	105619	20.01	0
2	106176	20.11	0
2	106733	20.21	0
2	107290	20.31	0
2	107847	20.41	0
2	108404	20.51	0
2	108961	20.61	0
2	109518	20.71	0
2	110075	20.81	0
2	110632	20.91	0
2	111197	21.01	0
2	111754	21.11	0
2	112311	21.21	0
2	112868	21.31	0
2	113425	21.41	0
2	113982	21.51	0
2	114539	21.61	0
2	115096	21.71	0
2	115653	21.81	0
2	116210	21.91	0
2	116775	22.01	0
2	117332	22.11	0
2	117889	22.21	0
2	118446	22.31	0
2	119003	22.41	0
2	119560	22.51	0
2	120117	22.61	0
2	120674	22.71	0
2	121231	22.81	0
2	121788	22.91	0
2	122353	23.01	0
2	122910	23.11	0
2	123467	23.21	0
2	124024	23.31	0
2	124581	23.41	0
2	125138	23.51	0
2	125695	23.61	0
2	126252	23.71	0
2	126809	23.81	0
2	127366	23.91	0
2	127931	24.01	0
2	128488	24.11	0
2	129045	24.21	0
2	129602	24.31	0
2	130159	24.41	0
2	130716	24.51	0
2	131273	24.61	0
2	131830	24.71	0
2	132387	24.81	0
2	132944	24.91	0
2	133509	25.01	0
2	134066	25.11	0
2	134623	25.21	0
2	135180	25.31	0
2	135737	25.41	0
2	136294	25.51	0
2	136851	25.61	0
2	137408	25.71	0
2	137965	25.81	0
2	138522	25.91	0
2	139087	26.01	0
2	139644	26.11	0
2	140201	26.21	0
2	140758	26.31	0
2	141315	26.41	0
2	141872	26.51	0
2	142429	26.61	0
2	142986	26.71	0
2	143543	26.81	0
2	144100	26.91	0
2	144665	27.01	0
2	145222	27.11	0
2	145779	27.21	0
2	146336	27.31	0
2	146893	27.41	0
2	147450	27.51	0
2	148007	27.61	0
2	148564	27.71	0
2	149121	27.81	0
2	149678	27.91	0
2	150243	28.01	0
2	150800	28.11	0
2	151357	28.21	0
2	151914	28.31	0
2	152471	28.41	0
2	153028	28.51	0
2	153585	28.61	0
2	154142	28.71	0
2	154699	28.81	0
2	155256	28.91	0
2	155821	29.01	0
2	156378	29.11	0
2	156935	29.21	0
2	157492	29.31	0
2	158049	29.41	0
2	158606	29.51	0
2	159163	29.61	0
2	159720	29.71	0
2	160277	29.81	0
2	160834	29.91	0
2	161399	30.01	0
2	161956	30.11	0
2	162513	30.21	0
2	163070	30.31	0
2	163627	30.41	0
2	164184	30.51	0
2	164741	30.61	0
2	165298	30.71	0
2	165855	30.81	0
2	166412	30.91	0
2	166977	31.01	0
2	167534	31.11	0
2	168091	31.21	0
2	168648	31.31	0
2	169205	31.41	0
2	169762	31.51	0
2	170319	31.61	0
2	170876	31.71	0
2	171433	31.81	0
2	171990	31.91	0
2	172555	32.01	0
2	173112	32.11	0
2	173669	32.21	0
2	174226	32.31	0
2	174783	32.41	0
2	175340	32.51	0
2	175897	32.61	0
10	5102	2	0
10	10670	3	0
10	16238	4	0
10	21807	5	0
10	27384	6	0
10	32962	7	0
10	38540	8	0
10	44118	9	0
10	49696	10	0
10	55274	11	0
10	60852	12	0
10	66430	13	0
10	72008	14	0
10	77586	15	0
10	83164	16	0
10	88742	17	0
10	94320	18	0
10	99898	19	0
10	105476	20	0
10	111054	21	0
10	116632	22	0
10	122210	23	0
10	127788	24	0
10	133366	25	0
10	138944	26	0
10	144522	27	0
10	150100	28	0
10	155678	29	0
10	161256	30	0
10	166834	31	0
10	172412	32	0
9	5102	2	0.022969
9	10670	3	0.02625
9	16238	4	0.02625
9	21807	5	0.02625
9	27384	6	0.02625
9	32962	7	0.02625
9	38540	8	0.02625
9	44118	9	0.02625
9	49696	10	0.02625
9	55274	11	0.02625
9	60852	12	0.02625
9	66430	13	0.02625
9	72008	14	0.02625
9	77586	15	0.02625
9	83164	16	0.02625
9	88742	17	0.02625
9	94320	18	0.02625
9	99898	19	0.02625
9	105476	20	0.02625
9	111054	21	0.02625
9	116632	22	0.02625
9	122210	23	0.02625
9	127788	24	0.02625
9	133366	25	0.02625
9	138944	26	0.02625
9	144522	27	0.02625
9	150100	28	0.02625
9	155678	29	0.02625
9	161256	30	0.02625
9	166834	31	0.02625
9	172412	32	0.02625
8	5102	2	0
8	10670	3	0
8	16238	4	0
8	21807	5	0
8	27384	6	0
8	32962	7	0
8	38540	8	0
8	44118	9	0
8	49696	10	0
8	55274	11	0
8	60852	12	0
8	66430	13	0
8	72008	14	0
8	77586	15	0
8	83164	16	0
8	88742	17	0
8	94320	18	0
8	99898	19	0
8	105476	20	0
8	111054	21	0
8	116632	22	0
8	122210	23	0
8	127788	24	0
8	133366	25	0
8	138944	26	0
8	144522	27	0
8	150100	28	0
8	155678	29	0
8	161256	30	0
8	166834	31	0
8	172412	32	0
29	233	1.11	0
29	789	1.21	-4.2028089104917e-07
29	1345	1.31	-4.1037736359328e-07
29	1901	1.41	-3.9497002468636e-07
29	2457	1.51	-3.7533895344666e-07
29	3013	1.61	-3.5260686516381e-07
29	3569	1.71	-3.2774773210065e-07
29	4125	1.81	-3.0159645660888e-07
29	4681	1.91	-2.7485917023284e-07
29	5245	2.01	-2.4812405655439e-07
29	5801	2.11	-2.2187224807624e-07
29	6357	2.21	-1.9648861517396e-07
29	6913	2.31	-1.722723734332e-07
29	7469	2.41	-1.4944724995303e-07
29	8025	2.51	-1.2817119028341e-07
29	8581	2.61	-1.0854544228778e-07
29	9137	2.71	-9.0623049544547e-08
29	9693	2.81	-7.4416612960704e-08
29	10249	2.91	-5.9905426326168e-08
29	10813	3.01	-4.704190850191e-08
29	11369	3.11	-3.5757296572569e-08
29	11925	3.21	-2.5966745411665e-08
29	12481	3.31	-1.757382214862e-08
29	13037	3.41	-1.047426493983e-08
29	13593	3.51	-4.5593402830946e-09
29	14149	3.61	2.8138870789007e-10
29	14705	3.71	4.1577375498036e-09
29	15261	3.81	7.177064702546e-09
29	15817	3.91	9.4427623054116e-09
29	16381	4.01	1.1053103747827e-08
29	16937	4.11	1.2100378370405e-08
29	17493	4.21	1.2670321325459e-08
29	18049	4.31	1.2841756600324e-08
29	18605	4.41	1.2686412702578e-08
29	19161	4.51	1.2268888767153e-08
29	19717	4.61	1.1646794959574e-08
29	20273	4.71	1.0870961091314e-08
29	20829	4.81	9.98574776645e-09
29	21385	4.91	9.0294304300187e-09
29	21950	5.01	8.0345700581574e-09
29	22507	5.11	7.0284990272285e-09
29	23064	5.21	0.3474432510643
29	23621	5.31	0.68340767634027
29	24178	5.41	0.99756362960665
29	24735	5.51	1.2810264095098
29	25292	5.61	1.5050667327666
29	25849	5.71	1.5064779107942
29	26406	5.81	1.5076614162434
29	26963	5.91	1.5086522208907
29	27528	6.01	1.5094791626184
29	28085	6.11	1.5101667037492
29	28642	6.21	1.5107356073857
29	29199	6.31	1.5112035072937
29	29756	6.41	1.5115853883839
29	30313	6.51	1.5118939920693
29	30870	6.61	1.4356986080555
29	31427	6.71	1.1704627173334
29	31984	6.81	0.86926982602222
29	32541	6.91	0.53948347694533
29	33106	7.01	0.18871517149831
29	33663	7.11	-0.17530246508703
29	34220	7.21	-0.54483943792221
29	34777	7.31	-0.91228796973787
29	35334	7.41	-1.2702768189983
29	35891	7.51	-1.500036175379
29	36448	7.61	-1.5021627915157
29	37005	7.71	-1.5039664689137
29	37562	7.81	-1.5054953295137
29	38119	7.91	-1.5067901534783
29	38684	8.01	-1.5078855225065
29	39241	8.11	-1.508810781777
29	39798	8.21	-1.5095908498025
29	40355	8.31	-1.510246900669
29	40912	8.41	-1.5107969391307
29	41469	8.51	-1.5112562856913
29	42026	8.61	-1.5116379860153
29	42583	8.71	-1.5119531566891
29	43140	8.81	-1.5122112774077
29	43697	8.91	-1.5124204380399
29	44262	9.01	-1.5125875476679
29	44819	9.11	-1.5127185115615
29	45376	9.21	-1.5128183810944
29	45933	9.31	-1.5128914808174
29	46490	9.41	-1.5129415162311
29	47047	9.51	-1.5129716528829
29	47604	9.61	-1.1182807061572
29	48161	9.71	-0.68321666692964
29	48718	9.81	-0.24003156655229
29	49275	9.91	0.20071445075052
29	49840	10.01	0.62925232726851
29	50397	10.11	1.0366735908526
29	50954	10.21	1.4149894779064
29	51511	10.31	1.5005809771074
29	52068	10.41	1.5027286522352
29	52625	10.51	1.5045444402698
29	53182	10.61	1.5060779540508
29	53739	10.71	1.5073712477359
29	54296	10.81	1.5084599907845
29	54853	10.91	1.5093744562495
29	55418	11.01	1.5101403532678
29	55975	11.11	1.5107795287493
29	56532	11.21	1.5113105591857
29	57089	11.31	1.511749250093
29	57646	11.41	1.5121090577669
29	58203	11.51	1.5124014456507
29	58760	11.61	1.5126361856386
29	59317	11.71	1.5128216129761
29	59874	11.81	1.512964842033
29	60431	11.91	1.4660292653309
29	60996	12.01	1.0838435606744
29	61553	12.11	0.67803824299812
29	62110	12.21	0.25895336561146
29	62667	12.31	-0.16352273754062
29	63224	12.41	-0.58004950289385
29	63781	12.51	-0.98192151518056
29	64338	12.61	-1.3611469167851
29	64895	12.71	-1.4997178901132
29	65452	12.81	-1.5018806717887
29	66009	12.91	-1.5037131135902
29	66574	13.01	-1.5052645270945
29	67131	13.11	-1.5065767026432
29	67688	13.21	-1.5076850795797
29	68245	13.31	-1.508619731033
29	68802	13.41	-1.5094061931573
29	69359	13.51	-1.5100661638341
29	69916	13.61	-1.5106180917528
29	70473	13.71	-1.5110776733804
29	71030	13.81	-1.5114582724815
29	71587	13.91	-1.5117712744795
29	72152	14.01	-1.512026385962
29	72709	14.11	-1.5122318879777
29	73266	14.21	-1.5123948503827
29	73823	14.31	-1.5125213133364
29	74380	14.41	-1.5126164410714
29	74937	14.51	-1.2410024422378
29	75494	14.61	-0.83107587424806
29	76051	14.71	-0.40586348486983
29	76608	14.81	0.024276337444096
29	77165	14.91	0.44958982920889
29	77730	15.01	0.86101243191296
29	78287	15.11	1.2502439358814
29	78844	15.21	1.4994432479782
29	79401	15.31	1.5017216647838
29	79958	15.41	1.5036504771215
29	80515	15.51	1.5052819848422
29	81072	15.61	1.5066605022666
29	81629	15.71	1.5078236016151
29	82186	15.81	1.5088031592478
29	82743	15.91	1.5096262365408
29	83308	16.01	1.5103158219988
29	83865	16.11	1.5108914568539
29	84422	16.21	1.5113697627744
29	84979	16.31	1.5117648872752
29	85536	16.41	1.5120888798986
29	86093	16.51	1.5123520101199
29	86650	16.61	1.5125630361699
29	87207	16.71	1.5127294324905
29	87764	16.81	1.5128575823033
29	88321	16.91	1.5129529406204
29	88886	17.01	1.1858811237775
29	89443	17.11	0.77714739730424
29	90000	17.21	0.35388343840771
29	90557	17.31	-0.073723036720355
29	91114	17.41	-0.49606876939167
29	91671	17.51	-0.90422046184686
29	92228	17.61	-1.2899910238318
29	92785	17.71	-1.4994338024229
29	93342	17.81	-1.5016747483293
29	93899	17.91	-1.5035724568403
29	94464	18.01	-1.5051782380112
29	95021	18.11	-1.5065355708686
29	95578	18.21	-1.5076813223431
29	96135	18.31	-1.5086467729638
29	96692	18.41	-1.5094584804919
29	97249	18.51	-1.5101390075527
29	97806	18.61	-1.5107075350683
29	98363	18.71	-1.5111803797357
29	98920	18.81	-1.5115714308308
29	99477	18.91	-1.5118925191438
29	100042	19.01	-1.5121537287813
29	100599	19.11	-1.5123636608452
29	101156	19.21	-1.512529656549
29	101713	19.31	-1.5126579861258
29	102270	19.41	-1.512754008868
29	102827	19.51	-1.2061940472161
29	103384	19.61	-0.79702383314754
29	103941	19.71	-0.37304313137965
29	104498	19.81	0.055497127634606
29	105055	19.91	0.47893793479894
29	105620	20.01	0.88829736473505
29	106177	20.11	1.2753464148332
29	106734	20.21	1.4995038240665
29	107291	20.31	1.5017579670277
29	107848	20.41	1.5036665549706
29	108405	20.51	1.5052812571061
29	108962	20.61	1.506645855545
29	109519	20.71	1.5077974731378
29	110076	20.81	1.5087676066372
29	110633	20.91	1.5095829965954
29	111198	21.01	1.5102663602551
29	111755	21.11	1.5108370093978
29	112312	21.21	1.5113113715334
29	112869	21.31	1.5117034298265
29	113426	21.41	1.5120250946569
29	113983	21.51	1.5122865176345
29	114540	21.61	1.5124963571408
29	115097	21.71	1.5126620030163
29	115654	21.81	1.5127897667935
29	116211	21.91	1.5128850428555
29	116776	22.01	1.1987242144933
29	117333	22.11	0.78971462144328
29	117890	22.21	0.36599851373662
29	118447	22.31	-0.062196612944374
29	119004	22.41	-0.48523241927972
29	119561	22.51	-0.89414501062122
29	120118	22.61	-1.2807209267037
29	120675	22.71	-1.4994228959275
29	121232	22.81	-1.501672599889
29	121789	22.91	-1.5035776302816
29	122354	23.01	-1.5051895196579
29	122911	23.11	-1.506551934717
29	123468	23.21	-1.5077019007809
29	124025	23.31	-1.5086708321355
29	124582	23.41	-1.5094853995588
29	125139	23.51	-1.5101682612231
29	125696	23.61	-1.510738678872
29	126253	23.71	-1.5112130376039
29	126810	23.81	-1.511605284615
29	127367	23.91	-1.5119272997651
29	127932	24.01	-1.5121892087521
29	128489	24.11	-1.5123996479468
29	129046	24.21	-1.5125659884834
29	129603	24.31	-1.512694525989
29	130160	24.41	-1.5127906413159
29	130717	24.51	-1.2014508623809
29	131274	24.61	-0.7923822433131
29	131831	24.71	-0.3685685213927
29	132388	24.81	0.059754111564319
29	132945	24.91	0.48293964609723
29	133510	25.01	0.89201749668324
29	134067	25.11	1.2787684355501
29	134624	25.21	1.499494307529
29	135181	25.31	1.5017451256042
29	135738	25.41	1.5036509472738
29	136295	25.51	1.5052633559233
29	136852	25.61	1.5066260611856
29	137409	25.71	1.5077761246663
29	137966	25.81	1.5087449913336
29	138523	25.91	1.5095593579268
29	139088	26.01	1.5102419045974
29	139645	26.11	1.5108119117078
29	140202	26.21	1.5112857801372
29	140759	26.31	1.5116774704642
29	141316	26.41	1.511998873903
29	141873	26.51	1.5122601257899
29	142430	26.61	1.5124698706811
29	142987	26.71	1.5126354866648
29	143544	26.81	1.5127632752787
29	144101	26.91	1.5128586224004
29	144666	27.01	1.2004714954308
29	145223	27.11	0.79142433392262
29	145780	27.21	0.36764639477532
29	146337	27.31	-0.060629357361874
29	146894	27.41	-0.48375975944967
29	147451	27.51	-0.89277670898153
29	148008	27.61	-1.2794631185401
29	148565	27.71	-1.4994383324453
29	149122	27.81	-1.5016891491064
29	149679	27.91	-1.503595084283
29	150244	28.01	-1.5052077025207
29	150801	28.11	-1.5065706975449
29	151358	28.21	-1.5077211175235
29	151915	28.31	-1.5086903960666
29	152472	28.41	-1.5095052203089
29	153029	28.51	-1.510188262276
29	153586	28.61	-1.5107587954525
29	154143	28.71	-1.5112332148942
29	154700	28.81	-1.511625476247
29	155257	28.91	-1.5119474665459
29	155822	29.01	-1.5122093175856
[...]
101	81333	15.654835450296	0.099907839704
101	81890	15.754860290053	0.100024839757
101	82447	15.854898129878	0.100037839825
101	83004	15.95485796978	0.099959839902
101	83569	16.054882809768	0.100024839988
101	84126	16.154868649851	0.099985840083
101	84683	16.254919490037	0.100050840186
101	85240	16.354879330329	0.099959840292
101	85797	16.454930170737	0.100050840408
101	86354	16.554903011265	0.099972840528
101	86911	16.654927851918	0.100024840653
101	87468	16.754913692703	0.099985840785
101	88025	16.854860533624	0.099946840921
101	88582	16.954898374683	0.100037841059
101	89147	17.054845215888	0.099946841205
101	89704	17.154896057231	0.100050841343
101	90261	17.254868898706	0.099972841475
101	90818	17.354880740299	0.100011841593
101	91375	17.454905581994	0.100024841695
101	91932	17.554852423766	0.099946841772
101	92489	17.654877265588	0.100024841822
101	93046	17.754863107434	0.099985841846
101	93603	17.85490094928	0.100037841846
101	94160	17.954834791103	0.099933841823
101	94725	18.054833632885	0.099998841782
101	95282	18.154884474607	0.100050841722
101	95839	18.254844316257	0.09995984165
101	96396	18.354921157824	0.100076841567
101	96953	18.454893999299	0.099972841475
101	97510	18.554853840671	0.099959841372
101	98067	18.654865681932	0.100011841261
101	98624	18.754851523077	0.099985841145
101	99181	18.854915364097	0.10006384102
101	99738	18.95484920499	0.099933840893
101	100303	19.054900045747	0.100050840757
101	100860	19.154846886365	0.099946840618
101	101417	19.254845726837	0.099998840472
101	101974	19.354831567162	0.099985840325
101	102531	19.45486940733	0.100037840168
101	103088	19.554829247342	0.099959840012
101	103645	19.654893087201	0.100063839859
101	104202	19.754852926914	0.099959839713
101	104759	19.854877766496	0.100024839582
101	105316	19.954915605965	0.100037839469
101	105881	20.054862445344	0.099946839379
101	106438	20.154887284657	0.100024839313
101	106995	20.254860123934	0.099972839277
101	107552	20.354832963199	0.099972839265
101	108109	20.454870802476	0.100037839277
101	108666	20.554843641784	0.099972839308
101	109223	20.654881481139	0.100037839355
101	109780	20.754828320555	0.099946839416
101	110337	20.854866160042	0.100037839487
101	110894	20.954864999615	0.099998839573
101	111459	21.054863839278	0.099998839663
101	112016	21.154901679042	0.100037839764
101	112573	21.254874518913	0.099972839871
101	113130	21.354860358899	0.099985839986
101	113687	21.454846199004	0.099985840105
101	114244	21.554884039236	0.100037840232
101	114801	21.654908879598	0.100024840362
101	115358	21.754881720096	0.099972840498
101	115915	21.854841560735	0.099959840639
101	116472	21.954853401522	0.100011840787
101	117037	22.054891242456	0.100037840934
101	117594	22.154838083535	0.099946841079
101	118151	22.25486292475	0.100024841215
101	118708	22.354861766091	0.099998841341
101	119265	22.454847607536	0.099985841445
101	119822	22.554846449066	0.09999884153
101	120379	22.654923290654	0.100076841588
101	120936	22.754844132272	0.099920841618
101	121493	22.854855973893	0.100011841621
101	122050	22.954880815497	0.100024841604
101	122615	23.054918657066	0.100037841569
101	123172	23.15489149858	0.099972841514
101	123729	23.254903340025	0.100011841445
101	124286	23.354837181394	0.099933841369
101	124843	23.454875022673	0.100037841279
101	125400	23.554886863857	0.100011841184
101	125957	23.654846704933	0.099959841076
101	126514	23.754884545897	0.100037840964
101	127071	23.854844386744	0.099959840847
101	127628	23.954856227464	0.10001184072
101	128193	24.054842068056	0.099985840592
101	128750	24.154918908511	0.100076840455
101	129307	24.254839748826	0.099920840315
101	129864	24.354851588996	0.10001184017
101	130421	24.454837429016	0.09998584002
101	130978	24.554836268884	0.099998839868
101	131535	24.654861108603	0.100024839719
101	132092	24.754924948182	0.100063839579
101	132649	24.854897787632	0.09997283945
101	133206	24.954844626973	0.099946839341
101	133771	25.054843466226	0.099998839253
101	134328	25.15489430542	0.100050839194
101	134885	25.254880144579	0.099985839159
101	135442	25.354878983732	0.099998839153
101	135999	25.4549168229	0.100037839168
101	136556	25.554876662104	0.099959839204
101	137113	25.654888501359	0.100011839255
101	137670	25.754861340678	0.099972839319
101	138227	25.854925180074	0.100063839396
101	138784	25.954872019555	0.099946839481
101	139349	26.054922859133	0.100050839578
101	139906	26.154895698813	0.09997283968
101	140463	26.254920538602	0.100024839789
101	141020	26.354854378511	0.099933839909
101	141577	26.45484021854	0.099985840029
101	142134	26.5548390587	0.09999884016
101	142691	26.654850898993	0.100011840293
101	143248	26.754901739427	0.100050840434
101	143805	26.854874580004	0.099972840577
101	144362	26.95488642073	0.100011840726
101	144927	27.054846261606	0.099959840876
101	145484	27.154871102631	0.100024841025
101	146041	27.254882943797	0.100011841166
101	146598	27.354868785091	0.099985841294
101	147155	27.454828626491	0.0999598414
101	147712	27.554918467978	0.100089841487
101	148269	27.654852309526	0.099933841548
101	148826	27.754916151106	0.10006384158
101	149383	27.854914992693	0.099998841587
101	149940	27.954926834265	0.100011841572
101	150505	28.054860675802	0.099933841537
101	151062	28.154846517287	0.099985841485
101	151619	28.254923358709	0.100076841422
101	152176	28.354883200053	0.099959841344
101	152733	28.454869041311	0.099985841258
101	153290	28.554841882474	0.099972841163
101	153847	28.654905723533	0.100063841059
101	154404	28.754904564483	0.09999884095
101	154961	28.854916405318	0.100011840835
101	155518	28.954915246028	0.09999884071
101	156083	29.054901086611	0.099985840583
101	156640	29.15483492706	0.099933840449
101	157197	29.25492476737	0.10008984031
101	157754	29.354871607538	0.099946840168
101	158311	29.454896447557	0.100024840019
101	158868	29.554882287425	0.099985839868
101	159425	29.654881127144	0.099998839719
101	159982	29.754892966727	0.100011839583
101	160539	29.854878806182	0.099985839455
101	161096	29.95485164553	0.099972839348
101	161661	30.054889484792	0.100037839262
101	162218	30.154914323976	0.100024839184
101	162775	30.254835163064	0.099920839088
101	163332	30.354834002001	0.099998838937
101	163889	30.4549108407	0.100076838699
101	164446	30.554883679064	0.099972838364
101	165003	30.654895516965	0.100011837901
101	165560	30.754881354258	0.099985837293
101	166117	30.854841190779	0.099959836521
101	166674	30.954840026355	0.099998835576
101	167239	31.05490386082	0.100063834465
101	167796	31.154889694002	0.099985833182
101	168353	31.254836525733	0.099946831731
101	168910	31.354874355843	0.10003783011
101	169467	31.454860184166	0.099985828323
101	170024	31.554885010535	0.100024826369
101	170581	31.654883834785	0.09999882425
101	171138	31.754843656753	0.099959821968
101	171695	31.854842476281	0.099998819528
101	172252	31.954867293207	0.100024816926
101	172817	32.054879107377	0.10001181417
101	173374	32.154929918623	0.100050811246
101	173931	32.254889726781	0.099959808158
101	174488	32.35486253168	0.099972804899
101	175045	32.454913333149	0.100050801469
101	175602	32.554886131018	0.099972797869
101	176159	32.65485892512	0.099972794102
102	1246	1.303561561081	0.099998840582
102	1802	1.403560401663	0.099998840582
102	2358	1.503559242245	0.099998840582
102	2914	1.603558082827	0.099998840582
102	3470	1.703556923409	0.099998840582
102	4026	1.803555763991	0.099998840582
102	4582	1.903554604573	0.099998840582
102	5146	2.003553445155	0.099998840582
102	5702	2.103552285737	0.099998840582
102	6258	2.203564126319	0.100011840582
102	6814	2.303562966901	0.099998840582
102	7370	2.403561807483	0.099998840582
102	7926	2.503560648065	0.099998840582
102	8482	2.603559488647	0.099998840582
102	9038	2.703558329229	0.099998840582
102	9594	2.803557169811	0.099998840582
102	10150	2.903556010393	0.099998840582
102	10714	3.003554850975	0.099998840582
102	11270	3.103553691557	0.099998840582
102	11826	3.203552532139	0.099998840582
102	12382	3.303564372721	0.100011840582
102	12938	3.403563213303	0.099998840582
102	13494	3.503562053885	0.099998840582
102	14050	3.603560894467	0.099998840582
102	14606	3.703559735049	0.099998840582
102	15162	3.803558575631	0.099998840582
102	15718	3.903557416213	0.099998840582
102	16282	4.003556256795	0.099998840582
102	16838	4.103555097377	0.099998840582
102	17394	4.203553937959	0.099998840582
102	17950	4.303552778541	0.099998840582
102	18506	4.403551619123	0.099998840582
102	19062	4.503563459705	0.100011840582
102	19618	4.603562300287	0.099998840582
102	20174	4.703561140869	0.099998840582
102	20730	4.803559981451	0.099998840582
102	21286	4.903558822033	0.099998840582
102	21851	5.003557662615	0.099998840582
102	22408	5.103556503197	0.099998840582
102	22965	5.20355534378	0.099998840583
102	23522	5.303554184365	0.099998840585
102	24079	5.403553024961	0.099998840596
102	24630	5.503551865578	0.099998840617
102	25187	5.603563706232	0.100011840654
102	25744	5.703562546941	0.099998840709
102	26301	5.80356138772	0.099998840779
102	26858	5.903560228589	0.099998840869
102	27423	6.00355906956	0.099998840971
102	27980	6.103557910646	0.099998841086
102	28537	6.203556751856	0.09999884121
102	29094	6.3035555932	0.099998841344
102	29651	6.403554434685	0.099998841485
102	30208	6.503553276318	0.099998841633
102	30765	6.603552118108	0.09999884179
102	31322	6.703563960056	0.100011841948
102	31879	6.803562802165	0.099998842109
102	32436	6.903561644437	0.099998842272
102	33001	7.003560486864	0.099998842427
102	33558	7.103559329435	0.099998842571
102	34115	7.203558172135	0.0999988427
102	34672	7.303557014947	0.099998842812
102	35229	7.403555857848	0.099998842901
102	35786	7.503554700812	0.099998842964
102	36343	7.603553543816	0.099998843004
102	36900	7.703552386836	0.09999884302
102	37457	7.803564229847	0.100011843011
102	38014	7.903563072832	0.099998842985
102	38579	8.003561915775	0.099998842943
102	39136	8.103560758662	0.099998842887
102	39693	8.203559601481	0.099998842819
102	40250	8.303558444225	0.099998842744
102	40807	8.403557286882	0.099998842657
102	41364	8.503556129446	0.099998842564
102	41921	8.603554971908	0.099998842462
102	42478	8.703553814261	0.099998842353
102	43035	8.8035526565	0.099998842239
102	43592	8.903564498618	0.100011842118
102	44157	9.003563340612	0.099998841994
102	44714	9.103562182474	0.099998841862
102	45271	9.203561024201	0.099998841727
102	45834	9.303559865785	0.099998841584
102	46391	9.403558707224	0.099998841439
102	46948	9.503557548512	0.099998841288
102	47505	9.603556389643	0.099998841131
102	48062	9.703555230619	0.099998840976
102	48619	9.80355407144	0.099998840821
102	49176	9.903552912117	0.099998840677
102	49741	10.003551752667	0.09999884055
102	50298	10.103563593109	0.100011840442
102	50855	10.203562433469	0.09999884036
102	51412	10.30356127377	0.099998840301
102	51969	10.403560114043	0.099998840273
102	52526	10.503558954313	0.09999884027
102	53083	10.603557794596	0.099998840283
102	53640	10.703556634915	0.099998840319
102	54197	10.803555475286	0.099998840371
102	54754	10.90355431572	0.099998840434
102	55319	11.003553156229	0.099998840509
102	55876	11.103551996821	0.099998840592
102	56433	11.203563837505	0.100011840684
102	56990	11.303562678289	0.099998840784
102	57547	11.40356151918	0.099998840891
102	58104	11.503560360185	0.099998841005
102	58661	11.603559201307	0.099998841122
102	59218	11.703558042554	0.099998841247
102	59775	11.80355688393	0.099998841376
102	60326	11.903555725441	0.099998841511
102	60891	12.00355456709	0.099998841649
102	61448	12.103553408877	0.099998841787
102	62005	12.203552250802	0.099998841925
102	62562	12.303564092853	0.100011842051
102	63119	12.403562935015	0.099998842162
102	63676	12.50356177727	0.099998842255
102	64233	12.603560619593	0.099998842323
102	64790	12.703559461958	0.099998842365
102	65347	12.803558304338	0.09999884238
102	65904	12.903557146706	0.099998842368
102	66469	13.003555989042	0.099998842336
102	67026	13.103554831328	0.099998842286
102	67583	13.203553673549	0.099998842221
102	68140	13.303552515692	0.099998842143
102	68697	13.403564357746	0.100011842054
102	69254	13.503563199699	0.099998841953
102	69811	13.603562041545	0.099998841846
102	70368	13.703560883276	0.099998841731
102	70931	13.803559724883	0.099998841607
102	71488	13.90355856636	0.099998841477
102	72053	14.003557407706	0.099998841346
102	72610	14.103556248909	0.099998841203
102	73167	14.203555089968	0.099998841059
102	73724	14.303553930876	0.099998840908
102	74281	14.403552771629	0.099998840753
102	74838	14.503551612224	0.099998840595
102	75395	14.603563452655	0.100011840431
102	75952	14.703562292927	0.099998840272
102	76509	14.803561133048	0.099998840121
102	77066	14.90355997303	0.099998839982
102	77631	15.003558812891	0.099998839861
102	78188	15.103557652654	0.099998839763
102	78745	15.203556492346	0.099998839692
102	79302	15.303555331993	0.099998839647
102	79859	15.403554171622	0.099998839629
102	80416	15.503553011258	0.099998839636
102	80973	15.603551850916	0.099998839658
102	81530	15.703563690618	0.100011839702
102	82087	15.803562530372	0.099998839754
102	82644	15.903561370194	0.099998839822
102	83209	16.003560210094	0.0999988399
102	83766	16.103559050082	0.099998839988
102	84323	16.203557890163	0.099998840081
102	84880	16.303556730345	0.099998840182
102	85437	16.403555570637	0.099998840292
102	85994	16.503554411044	0.099998840407
102	86551	16.60355325157	0.099998840526
102	87108	16.703552092224	0.099998840654
102	87665	16.803563933008	0.100011840784
102	88216	16.903562773927	0.099998840919
102	88781	17.003561614988	0.099998841061
102	89338	17.103560456192	0.099998841204
102	89895	17.203559297536	0.099998841344
102	90452	17.303558139012	0.099998841476
102	91009	17.403556980607	0.099998841595
102	91566	17.503555822301	0.099998841694
102	92123	17.603554664075	0.099998841774
102	92680	17.703553505896	0.099998841821
102	93237	17.803552347742	0.099998841846
102	93794	17.903564189587	0.100011841845
102	94359	18.003563031409	0.099998841822
102	94916	18.103561873187	0.099998841778
102	95473	18.203560714907	0.09999884172
102	96030	18.303559556555	0.099998841648
102	96587	18.403558398119	0.099998841564
102	97144	18.503557239591	0.099998841472
102	97701	18.603556080959	0.099998841368
102	98258	18.703554922217	0.099998841258
102	98815	18.803553763358	0.099998841141
102	99372	18.903552604376	0.099998841018
102	99943	19.003564445263	0.100011840887
102	100500	19.103563286018	0.099998840755
102	101057	19.20356212663	0.099998840612
102	101614	19.303560967098	0.099998840468
102	102171	19.403559807417	0.099998840319
102	102728	19.50355864758	0.099998840163
102	103285	19.603557487586	0.099998840006
102	103842	19.703556327439	0.099998839853
102	104399	19.803555167147	0.099998839708
102	104956	19.903554006722	0.099998839575
102	105521	20.003552846186	0.099998839464
102	106078	20.103551685559	0.099998839373
102	106635	20.203563524867	0.100011839308
102	107192	20.30356236414	0.099998839273
102	107749	20.403561203402	0.099998839262
102	108306	20.503560042675	0.099998839273
102	108863	20.603558881981	0.099998839306
102	109420	20.703557721333	0.099998839352
102	109977	20.803556560746	0.099998839413
102	110534	20.903555400233	0.099998839487
102	111099	21.003554239802	0.099998839569
102	111656	21.103553079466	0.099998839664
102	112213	21.203551919228	0.099998839762
102	112770	21.303563759098	0.10001183987
102	113327	21.403562599083	0.099998839985
102	113884	21.503561439188	0.099998840105
102	114441	21.603560279418	0.09999884023
102	114998	21.70355911978	0.099998840362
102	115549	21.803557960279	0.099998840499
102	116106	21.90355680092	0.099998840641
102	116671	22.003555641707	0.099998840787
102	117228	22.103554482642	0.099998840935
102	117785	22.203553323723	0.099998841081
102	118342	22.30355216494	0.099998841217
102	118899	22.403564006282	0.100011841342
102	119456	22.503562847729	0.099998841447
102	120013	22.603561689261	0.099998841532
102	120570	22.70356053085	0.099998841589
102	121127	22.803559372467	0.099998841617
102	121684	22.903558214089	0.099998841622
102	122249	23.003557055693	0.099998841604
102	122806	23.103555897261	0.099998841568
102	123363	23.203554738773	0.099998841512
102	123920	23.303553580217	0.099998841444
102	124477	23.403552421583	0.099998841366
102	125034	23.503564262861	0.100011841278
102	125591	23.603563104042	0.099998841181
102	126148	23.703561945116	0.099998841074
102	126705	23.803560786079	0.099998840963
102	127262	23.903559626922	0.099998840843
102	127827	24.003558467641	0.099998840719
102	128390	24.103557308229	0.099998840588
102	128947	24.203556148681	0.099998840452
102	129504	24.303554988993	0.099998840312
102	130061	24.403553829159	0.099998840166
102	130618	24.503552669175	0.099998840016
102	131175	24.603564509038	0.100011839863
102	131732	24.703563348753	0.099998839715
102	132289	24.803562188328	0.099998839575
102	132846	24.903561027772	0.099998839444
102	133411	25.003559867108	0.099998839336
102	133968	25.103558706358	0.09999883925
102	134525	25.203557545547	0.099998839189
102	135082	25.303556384704	0.099998839157
102	135639	25.403555223855	0.099998839151
102	136196	25.50355406302	0.099998839165
102	136753	25.603552902223	0.099998839203
102	137310	25.703551741477	0.099998839254
102	137867	25.803563580795	0.100011839318
102	138424	25.903562420189	0.099998839394
102	138989	26.003561259671	0.099998839482
102	139546	26.103560099248	0.099998839577
102	140103	26.203558938927	0.099998839679
102	140660	26.303557778719	0.099998839792
102	141217	26.403556618626	0.099998839907
102	141774	26.503555458657	0.099998840031
102	142331	26.603554298817	0.09999884016
102	142882	26.703553139112	0.099998840295
102	143439	26.803551979547	0.099998840435
102	143996	26.903563820127	0.10001184058
102	144561	27.003562660854	0.099998840727
102	145118	27.103561501733	0.099998840879
102	145675	27.20356034276	0.099998841027
102	146232	27.303559183931	0.099998841171
102	146789	27.403558025226	0.099998841295
102	147346	27.50355686663	0.099998841404
102	147903	27.60355570812	0.09999884149
102	148460	27.703554549669	0.099998841549
102	149017	27.803553391251	0.099998841582
102	149574	27.903552232838	0.099998841587
102	150139	28.003564074412	0.100011841574
102	150696	28.103562915948	0.099998841536
102	151253	28.203561757433	0.099998841485
102	151810	28.303560598854	0.099998841421
102	152367	28.403559440198	0.099998841344
102	152924	28.503558281454	0.099998841256
102	153481	28.603557122616	0.099998841162
102	154038	28.703555963675	0.099998841059
102	154595	28.803554804624	0.099998840949
102	155152	28.903553645457	0.099998840833
102	155717	29.003552486165	0.099998840708
102	156274	29.103564326747	0.100011840582
102	156837	29.203563167192	0.099998840445
102	157394	29.303562007501	0.099998840309
102	157951	29.403560847667	0.099998840166
102	158508	29.503559687682	0.099998840015
102	159065	29.603558527546	0.099998839864
102	159622	29.703557367262	0.099998839716
102	160179	29.80355620684	0.099998839578
102	160736	29.903555046291	0.099998839451
102	161301	30.003553885636	0.099998839345
102	161858	30.103552724888	0.099998839252
102	162415	30.203564564051	0.100011839163
102	162966	30.303563403101	0.09999883905
102	163523	30.403562241984	0.099998838883
102	164080	30.503561080621	0.099998838637
102	164637	30.603559918908	0.099998838287
102	165194	30.703558756715	0.099998837807
102	165751	30.803557593893	0.099998837178
102	166308	30.903556430272	0.099998836379
102	166873	31.003555265682	0.09999883541
102	167430	31.103554099949	0.099998834267
102	167987	31.203552932904	0.099998832955
102	168544	31.303551764376	0.099998831472
102	169101	31.403563594195	0.100011829819
102	169658	31.503562422194	0.099998827999
102	170215	31.603561248204	0.09999882601
102	170772	31.703560072063	0.099998823859
102	171329	31.803558893606	0.099998821543
102	171886	31.903557712673	0.099998819067
102	172451	32.003556529106	0.099998816433
102	173008	32.103555342748	0.099998813642
102	173565	32.203554153432	0.099998810684
102	174122	32.303552960992	0.09999880756
102	174679	32.403551765258	0.099998804266
102	175236	32.50356356606	0.100011800802
102	175793	32.603562363228	0.099998797168
