file 906111 1501695927                                          
version 2
run SinusoidalSpeedInjectionAttack-223-20170802-19:45:10-93879
attr CACCSpacing 5
attr attackAcc -30
attr attackPos 7
attr attackSpeed 100
attr attackStart 30
attr attacker 3
attr beaconInterval 0.1
attr configname SinusoidalSpeedInjectionAttack
attr controller 1
attr datetime 20170802-19:45:10
attr experiment SinusoidalSpeedInjectionAttack
attr fakeAcc "(3 == 4)"
attr fakePos "(3 == 2)"
attr fakeSpeed "(3 == 3)"
attr inifile omnetpp_223.ini
attr iterationvars "$attacker=3, $attackSpeed=100, $attackPos=7, $attackAcc=-30, $leaderSpeed=150, $controller=1, $CACCSpacing=5, $sController=\"CACC\", $attackStart=30, $0=5, $1=0, $nCars=8, $platoonSize=8, $nLanes=1, $beaconInterval=0.1, $priority=2, $packetSize=200, $ploegH=0.5, $leaderHeadway=1.2, $fakeSpeed=(3 == 3), $fakeAcc=(3 == 4), $fakePos=(3 == 2)"
attr iterationvarsf attacker=3,attackSpeed=100,attackPos=7,attackAcc=-30,leaderSpeed=150,controller=1,CACCSpacing=5,sController=CACC,attackStart=30,5,0,nCars=8,platoonSize=8,nLanes=1,beaconInterval=0.1,priority=2,packetSize=200,ploegH=0.5,leaderHeadway=1.2,fakeSpeed=(3_==_3),fakeAcc=(3_==_4),fakePos=(3_==_2)-
attr leaderHeadway 1.2
attr leaderSpeed 150
attr measurement "$attacker=3, $attackSpeed=100, $attackPos=7, $attackAcc=-30, $leaderSpeed=150, $controller=1, $CACCSpacing=5, $sController=\"CACC\", $attackStart=30, $0=5, $1=0, $nCars=8, $platoonSize=8, $nLanes=1, $beaconInterval=0.1, $priority=2, $packetSize=200, $ploegH=0.5, $leaderHeadway=1.2, $fakeSpeed=(3 == 3), $fakeAcc=(3 == 4), $fakePos=(3 == 2)"
attr nCars 8
attr nLanes 1
attr network scenario
attr packetSize 200
attr platoonSize 8
attr ploegH 0.5
attr priority 2
attr processid 93879
attr repetition 3
attr replication #3
attr resultdir results
attr runnumber 223
attr sController "\"CACC\""
attr seedset 3
param **.coreDebug false
param **.debug false
param **.headway 0.1s
param **.numberOfCars 8
param **.numberOfCarsPerPlatoon 8
param **.numberOfLanes 1
param **.numericController 1
param **.traffic.nCars 8
param **.traffic.nLanes 1
param **.traffic.platoonInsertDistance 5m
param **.traffic.platoonInsertHeadway 0s
param **.traffic.platoonInsertSpeed 150kmph
param **.traffic.platoonInsertTime "1 s"
param **.traffic.platoonLeaderHeadway 1.2s
param **.traffic.platoonSize 8
param **.traffic.platooningVType "\"vtypeauto\""
param **.traffic_type "\"PlatoonsTrafficManager\""
param *.**.nic.mac1609_4.bitrate 6Mbps
param *.**.nic.mac1609_4.txPower 100mW
param *.**.nic.mac1609_4.useServiceChannel false
param *.**.nic.phy80211p.analogueModels "xmldoc(\"config.xml\")"
param *.**.nic.phy80211p.decider "xmldoc(\"config.xml\")"
param *.**.nic.phy80211p.maxTXPower 100mW
param *.**.nic.phy80211p.sensitivity -94dBm
param *.**.nic.phy80211p.thermalNoise -95dBm
param *.**.nic.phy80211p.usePropagationDelay true
param *.**.nic.phy80211p.useThermalNoise true
param *.annotations.draw false
param *.connectionManager.alpha 2.0
param *.connectionManager.carrierFrequency "5.890e9 Hz"
param *.connectionManager.pMax 100mW
param *.connectionManager.sat -94dBm
param *.connectionManager.sendDirect true
param *.manager.autoShutdown true
param *.manager.commandLine "\"sumo --remote-port $port --seed $seed --configuration-file $configFile\""
param *.manager.configFile "\"./sumocfg/freeway.sumo.cfg\""
param *.manager.host "\"localhost\""
param *.manager.margin 25
param *.manager.moduleDisplayString "\"\""
param *.manager.moduleName "\"node\""
param *.manager.moduleType "\"Car\""
param *.manager.updateInterval 0.01s
param *.node[*].appl.attackStart 30s
param *.node[*].appl.attackerType 3
param *.node[*].appl.simulationDuration "60 s"
param *.node[*].appl_type "\"SimplePlatooningApp\""
param *.node[*].helper.nCars 8
param *.node[*].helper.nLanes 1
param *.node[*].helper.platoonSize 8
param *.node[*].helper_type "\"PositionHelper\""
param *.node[*].mobility.x 0
param *.node[*].mobility.y 0
param *.node[*].mobility.z 1.895
param *.node[*].prot.attackStart 30s
param *.node[*].prot.attackerType 3
param *.node[*].prot.attackingNode 3
param *.node[*].prot.beaconingInterval 0.1s
param *.node[*].prot.fakeAcc "(3 == 4)"
param *.node[*].prot.fakePos "(3 == 2)"
param *.node[*].prot.fakeSpeed "(3 == 3)"
param *.node[*].prot.maliciousAcc "-30 mpss"
param *.node[*].prot.maliciousSpeed 100kmph
param *.node[*].prot.packetSize 200
param *.node[*].prot.priority 2
param *.node[*].prot.shiftX "7 m"
param *.node[*].prot.useControllerAcceleration true
param *.node[*].protocol_type "\"SimplePlatooningBeaconing\""
param *.node[*].scenario.accHeadway 0.1s
param *.node[*].scenario.caccC1 0.5
param *.node[*].scenario.caccOmegaN "0.2 Hz"
param *.node[*].scenario.caccSpacing 5m
param *.node[*].scenario.caccXi 1
param *.node[*].scenario.controller "\"CACC\""
param *.node[*].scenario.engineTau "0.5 s"
param *.node[*].scenario.leaderHeadway 1.2s
param *.node[*].scenario.leaderOscillationFrequency "0.2 Hz"
param *.node[*].scenario.leaderSpeed 150kmph
param *.node[*].scenario.oscillationAmplitude "10 kmph"
param *.node[*].scenario.ploegH 0.5s
param *.node[*].scenario.ploegKd 0.7
param *.node[*].scenario.ploegKp 0.2
param *.node[*].scenario.startOscillating "5 s"
param *.node[*].scenario.useRealisticEngine false
param *.node[*].scenario_type "\"SinusoidalScenario\""
param *.node[*].unicast.packetLossRate 0
param *.obstacles.debug false
param *.playgroundSizeX 65000m
param *.playgroundSizeY 25000m
param *.playgroundSizeZ 50m
param *.world.use2D false
param *.world.useTorus false

vector 0  scenario.node[0].appl  distance  ETV
vector 1  scenario.node[0].appl  relativeSpeed  ETV
vector 2  scenario.node[0].appl  nodeId  ETV
vector 6  scenario.node[0].appl  acceleration  ETV
vector 7  scenario.node[0].appl  controllerAcceleration  ETV
vector 3  scenario.node[0].appl  speed  ETV
vector 4  scenario.node[0].appl  posx  ETV
vector 5  scenario.node[0].appl  posy  ETV
vector 22  scenario.node[1].appl  distance  ETV
vector 23  scenario.node[1].appl  relativeSpeed  ETV
vector 24  scenario.node[1].appl  nodeId  ETV
vector 28  scenario.node[1].appl  acceleration  ETV
vector 29  scenario.node[1].appl  controllerAcceleration  ETV
vector 25  scenario.node[1].appl  speed  ETV
vector 26  scenario.node[1].appl  posx  ETV
vector 27  scenario.node[1].appl  posy  ETV
vector 44  scenario.node[2].appl  distance  ETV
vector 45  scenario.node[2].appl  relativeSpeed  ETV
vector 46  scenario.node[2].appl  nodeId  ETV
vector 50  scenario.node[2].appl  acceleration  ETV
vector 51  scenario.node[2].appl  controllerAcceleration  ETV
vector 47  scenario.node[2].appl  speed  ETV
vector 48  scenario.node[2].appl  posx  ETV
vector 49  scenario.node[2].appl  posy  ETV
vector 66  scenario.node[3].appl  distance  ETV
vector 67  scenario.node[3].appl  relativeSpeed  ETV
vector 68  scenario.node[3].appl  nodeId  ETV
vector 72  scenario.node[3].appl  acceleration  ETV
vector 73  scenario.node[3].appl  controllerAcceleration  ETV
vector 69  scenario.node[3].appl  speed  ETV
vector 70  scenario.node[3].appl  posx  ETV
vector 71  scenario.node[3].appl  posy  ETV
vector 88  scenario.node[4].appl  distance  ETV
vector 89  scenario.node[4].appl  relativeSpeed  ETV
vector 90  scenario.node[4].appl  nodeId  ETV
vector 94  scenario.node[4].appl  acceleration  ETV
vector 95  scenario.node[4].appl  controllerAcceleration  ETV
vector 91  scenario.node[4].appl  speed  ETV
vector 92  scenario.node[4].appl  posx  ETV
vector 93  scenario.node[4].appl  posy  ETV
vector 110  scenario.node[5].appl  distance  ETV
vector 111  scenario.node[5].appl  relativeSpeed  ETV
vector 112  scenario.node[5].appl  nodeId  ETV
vector 116  scenario.node[5].appl  acceleration  ETV
vector 117  scenario.node[5].appl  controllerAcceleration  ETV
vector 113  scenario.node[5].appl  speed  ETV
vector 114  scenario.node[5].appl  posx  ETV
vector 115  scenario.node[5].appl  posy  ETV
vector 132  scenario.node[6].appl  distance  ETV
vector 133  scenario.node[6].appl  relativeSpeed  ETV
vector 134  scenario.node[6].appl  nodeId  ETV
vector 138  scenario.node[6].appl  acceleration  ETV
vector 139  scenario.node[6].appl  controllerAcceleration  ETV
vector 135  scenario.node[6].appl  speed  ETV
vector 136  scenario.node[6].appl  posx  ETV
vector 137  scenario.node[6].appl  posy  ETV
vector 154  scenario.node[7].appl  distance  ETV
vector 155  scenario.node[7].appl  relativeSpeed  ETV
vector 156  scenario.node[7].appl  nodeId  ETV
vector 160  scenario.node[7].appl  acceleration  ETV
vector 161  scenario.node[7].appl  controllerAcceleration  ETV
vector 157  scenario.node[7].appl  speed  ETV
vector 158  scenario.node[7].appl  posx  ETV
vector 159  scenario.node[7].appl  posy  ETV
vector 35  scenario.node[1].prot  leaderDelay  ETV
vector 33  scenario.node[1].prot  leaderDelayId  ETV
vector 36  scenario.node[1].prot  frontDelay  ETV
vector 34  scenario.node[1].prot  frontDelayId  ETV
vector 57  scenario.node[2].prot  leaderDelay  ETV
vector 55  scenario.node[2].prot  leaderDelayId  ETV
vector 79  scenario.node[3].prot  leaderDelay  ETV
vector 77  scenario.node[3].prot  leaderDelayId  ETV
vector 101  scenario.node[4].prot  leaderDelay  ETV
vector 99  scenario.node[4].prot  leaderDelayId  ETV
vector 123  scenario.node[5].prot  leaderDelay  ETV
vector 121  scenario.node[5].prot  leaderDelayId  ETV
vector 145  scenario.node[6].prot  leaderDelay  ETV
vector 143  scenario.node[6].prot  leaderDelayId  ETV
vector 167  scenario.node[7].prot  leaderDelay  ETV
vector 165  scenario.node[7].prot  leaderDelayId  ETV
vector 168  scenario.node[7].prot  frontDelay  ETV
vector 166  scenario.node[7].prot  frontDelayId  ETV
vector 58  scenario.node[2].prot  frontDelay  ETV
vector 56  scenario.node[2].prot  frontDelayId  ETV
vector 124  scenario.node[5].prot  frontDelay  ETV
vector 122  scenario.node[5].prot  frontDelayId  ETV
vector 80  scenario.node[3].prot  frontDelay  ETV
vector 78  scenario.node[3].prot  frontDelayId  ETV
vector 146  scenario.node[6].prot  frontDelay  ETV
vector 144  scenario.node[6].prot  frontDelayId  ETV
vector 102  scenario.node[4].prot  frontDelay  ETV
vector 100  scenario.node[4].prot  frontDelayId  ETV
vector 8  scenario.node[0].prot  nodeId  ETV
vector 9  scenario.node[0].prot  busyTime  ETV
vector 10  scenario.node[0].prot  collisions  ETV
vector 30  scenario.node[1].prot  nodeId  ETV
vector 31  scenario.node[1].prot  busyTime  ETV
vector 32  scenario.node[1].prot  collisions  ETV
vector 52  scenario.node[2].prot  nodeId  ETV
vector 53  scenario.node[2].prot  busyTime  ETV
vector 54  scenario.node[2].prot  collisions  ETV
vector 74  scenario.node[3].prot  nodeId  ETV
vector 75  scenario.node[3].prot  busyTime  ETV
vector 76  scenario.node[3].prot  collisions  ETV
vector 96  scenario.node[4].prot  nodeId  ETV
vector 97  scenario.node[4].prot  busyTime  ETV
vector 98  scenario.node[4].prot  collisions  ETV
vector 118  scenario.node[5].prot  nodeId  ETV
vector 119  scenario.node[5].prot  busyTime  ETV
vector 120  scenario.node[5].prot  collisions  ETV
vector 140  scenario.node[6].prot  nodeId  ETV
vector 141  scenario.node[6].prot  busyTime  ETV
vector 142  scenario.node[6].prot  collisions  ETV
vector 162  scenario.node[7].prot  nodeId  ETV
vector 163  scenario.node[7].prot  busyTime  ETV
vector 164  scenario.node[7].prot  collisions  ETV
7	11253 7622 232 177568 1.11 32.91 319 -1.5 1.5 7.7460145522981 502.8098403155
6	18875 10004 232 177568 1.11 32.91 319 -1.4722746794739 1.4513407705138 11.575817869604 336.21656640012
5	28879 6411 232 177568 1.11 32.91 319 36.55 36.55 11659.45 426152.8975
4	35290 9573 232 177568 1.11 32.91 319 106.51262168844 1435.8212441402 246311.58235152 237417352.42483
3	44863 9552 232 177568 1.11 32.91 319 40.376926150007 43.631381416411 13335.16323096 557686.66362967
1	54415 5135 232 177568 1.11 32.91 319 0 0 0 0
0	59550 5454 232 177568 1.11 32.91 319 -1 -1 -319 319
2	65004 5135 232 177568 1.11 32.91 319 0 0 0 0
10	70139 438 5056 172366 2 32 31 0 0 0 0
9	70577 801 5056 172366 2 32 31 0.022754155264 0.026262199507 0.810255605068 0.021189703012888
8	71378 407 5056 172366 2 32 31 0 0 0 0
29	71785 10260 233 177569 1.11 32.91 319 -1.5233934264462 1.5241492086194 8.9560255580729 508.38300094865
28	82045 10313 233 177569 1.11 32.91 319 -1.4872877100615 1.4632119897982 12.111361811233 339.66720330509
27	92358 6730 233 177569 1.11 32.91 319 36.55 36.55 11659.45 426152.8975
26	99088 9889 233 177569 1.11 32.91 319 97.512621688843 1426.7380330668 243437.65561574 233006390.53918
25	108977 9887 233 177569 1.11 32.91 319 40.369384324891 43.636793800984 13334.349339517 557620.8756362
23	118864 10780 233 177569 1.11 32.91 319 -0.085370600681763 0.085492926698635 0.69813326444461 1.218787764851
22	129644 9885 233 177569 1.11 32.91 319 4.9094713881116 5.1291543764278 1597.9104579591 8005.2717026535
24	139529 5454 233 177569 1.11 32.91 319 1 1 319 319
36	144983 12604 836 177059 1.269557810561 32.869563496268 317 0.09999877886 0.100011862536 31.700004466247 3.1700008978401
35	157587 12604 836 177059 1.269557810561 32.869563496268 317 0.09999877886 0.100011862536 31.700004466247 3.1700008978401
34	170191 8558 836 177059 1.269557810561 32.869563496268 317 1 1 317 317
33	178749 8558 836 177059 1.269557810561 32.869563496268 317 1 1 317 317
32	187307 438 5057 172367 2 32 31 0 0 0 0
31	187745 833 5057 172367 2 32 31 0.022754185285 0.026262199235 0.810255635283 0.021189704389271
30	188578 438 5057 172367 2 32 31 1 1 31 31
51	189016 10268 234 177570 1.11 32.91 319 -1.5293286435047 1.5293868318557 9.0009843010781 509.90543679371
50	199284 10338 234 177570 1.11 32.91 319 -1.4784118030896 1.4535038995902 12.14104439101 336.42283911052
49	209622 6730 234 177570 1.11 32.91 319 36.55 36.55 11659.45 426152.8975
48	216352 9897 234 177570 1.11 32.91 319 88.51262550354 1417.7195338459 240565.35454497 228649043.8859
47	226249 9875 234 177570 1.11 32.91 319 40.375322632411 43.6306157707 13334.164987988 557603.02197521
45	236124 11014 234 177570 1.11 32.91 319 -0.011889281066061 0.011086338742892 0.06323791076813 0.011320965294215
44	247138 9880 234 177570 1.11 32.91 319 4.9825737917779 5.0363329570692 1596.2973837357 7988.0356269654
46	257018 5454 234 177570 1.11 32.91 319 2 2 638 1276
58	262472 12617 1046 177263 1.299189200831 32.899194896666 317 0.099998778849 0.100011887767 31.700004476375 3.1700008998666
57	275089 12608 842 177065 1.269557840582 32.869563526351 317 0.099998778859 0.10001186254 31.700004466309 3.1700008978525
56	287697 8563 1046 177263 1.299189200831 32.899194896666 317 2 2 634 1268
55	296260 8555 842 177065 1.269557840582 32.869563526351 317 2 2 634 1268
54	304815 438 5058 172368 2 32 31 0 0 0 0
53	305253 833 5058 172368 2 32 31 0.022754215306 0.026262199165 0.810255665323 0.021189705756474
52	306086 438 5058 172368 2 32 31 2 2 62 124
73	306524 10247 235 177571 1.11 32.91 319 -1.4888887519616 1.4893728964936 9.6806621347884 474.6298408123
72	316771 10301 235 177571 1.11 32.91 319 -1.4638941767302 1.4373649688743 12.175549761081 329.37532632992
71	327072 6730 235 177571 1.11 32.91 319 36.55 36.55 11659.45 426152.8975
70	333802 9872 235 177571 1.11 32.91 319 79.51262550354 1408.6833229962 237693.01430332 224344127.9226
69	343674 9878 235 177571 1.11 32.91 319 40.39023384252 43.617117941382 13333.803469757 557567.90045994
67	353552 10816 235 177571 1.11 32.91 319 -0.037725853650961 0.033958273763183 0.240107786754 0.13647578001996
66	364368 9845 235 177571 1.11 32.91 319 4.9599643258495 5.0696736114792 1596.3330112867 7988.5644072954
68	374213 5454 235 177571 1.11 32.91 319 3 3 957 2871
80	379667 12625 1180 177404 1.300210350935 32.900203115352 317 0.099998778852 0.100011820915 31.699991544957 3.1699983134431
79	392292 12608 848 177071 1.269557870602 32.869563556492 317 0.099998778857 0.100011862551 31.70000446643 3.1700008978767
78	404900 8564 1180 177404 1.300210350935 32.900203115352 317 3 3 951 2853
77	413464 8567 848 177071 1.269557870602 32.869563556492 317 3 3 951 2853
76	422031 438 5059 172369 2 32 31 0 0 0 0
75	422469 831 5059 172369 2 32 31 0.022753185285 0.026262199305 0.810254635272 0.021189658881325
74	423300 438 5059 172369 2 32 31 3 3 93 279
95	423738 10259 236 177572 1.11 32.91 319 -3.4491105251359 1.483355826437 -76.299945625366 559.10286512994
94	433997 10306 236 177572 1.11 32.91 319 -2.7545564000881 1.4275171539374 -64.644943539471 392.39020611966
93	444303 6730 236 177572 1.11 32.91 319 36.55 36.55 11659.45 426152.8975
92	451033 9880 236 177572 1.11 32.91 319 70.51262550354 1389.3056349112 234723.22830402 219823544.02248
91	460913 9889 236 177572 1.11 32.91 319 35.318325365641 43.603845063763 13227.352577095 549129.29862584
89	470802 10917 236 177572 1.11 32.91 319 -0.012164311701831 7.5906369932463 106.32913716477 558.10364265463
88	481719 9851 236 177572 1.11 32.91 319 4.9850564146382 15.225959399677 1691.656981442 9548.9727927778
90	491570 5454 236 177572 1.11 32.91 319 4 4 1276 5104
102	497024 12941 1312 177542 1.306028501039 32.906060335414 317 0.099907778972 0.100089782295 31.699965614915 3.1699936686396
101	509965 12930 854 177077 1.269557900623 32.869563619869 317 0.099998778855 0.100011864763 31.700004499786 3.1700009045479
100	522895 8888 1312 177542 1.306028501039 32.906060335414 317 4 4 1268 5072
99	531783 8568 854 177077 1.269557900623 32.869563619869 317 4 4 1268 5072
98	540351 438 5060 172370 2 32 31 0 0 0 0
97	540789 834 5060 172370 2 32 31 0.022754155264 0.026262199361 0.810255590431 0.021189702244471
96	541623 438 5060 172370 2 32 31 4 4 124 496
139	542061 10575 238 177574 1.11 32.91 319 -2.6929263080131 1.4846826954146 -21.284772455856 456.51621836538
138	552636 10631 238 177574 1.11 32.91 319 -1.6457045350485 1.4280810613457 -13.590433794212 304.12418865293
137	563267 7049 238 177574 1.11 32.91 319 36.55 36.55 11659.45 426152.8975
136	570316 10212 238 177574 1.11 32.91 319 52.512623596191 1378.765240427 229051.02276109 211668528.39757
135	580528 10203 238 177574 1.11 32.91 319 40.366670364938 43.600367745746 13303.729009314 555067.2950293
133	590731 11067 238 177574 1.11 32.91 319 -1.830402769677 0.046328181019653 -25.160425715508 33.140497333167
132	601798 10201 238 177574 1.11 32.91 319 2.5538673138851 5.0375578473123 1574.2872316114 7801.7005757144
134	611999 5773 238 177574 1.11 32.91 319 6 6 1914 11484
146	617772 12920 1249 177473 1.305615440997 32.905608214918 317 0.099998778836 0.100011833088 31.699991554461 3.1699983153443
145	630692 12934 866 177089 1.269557960665 32.86956365587 317 0.099998778853 0.100011863236 31.700004475745 3.1700008997397
144	643626 8877 1249 177473 1.305615440997 32.905608214918 317 6 6 1902 11412
143	652503 8884 866 177089 1.269557960665 32.86956365587 317 6 6 1902 11412
142	661387 469 5062 172372 2 32 31 0 0 0 0
141	661856 865 5062 172372 2 32 31 0.022754095223 0.026262199288 0.810255541574 0.021189700099246
140	662721 469 5062 172372 2 32 31 6 6 186 1116
161	663190 10597 239 177575 1.11 32.91 319 -2.3556608780845 1.5049027513383 -9.5334255628256 477.87218983255
160	673787 10656 239 177575 1.11 32.91 319 -1.4497273688576 1.4254867387947 -2.1635844472009 306.35615696963
159	684443 7049 239 177575 1.11 32.91 319 36.55 36.55 11659.45 426152.8975
158	691492 10209 239 177575 1.11 32.91 319 43.512624549866 1371.1917202692 226191.79875717 207604836.28172
157	701701 10198 239 177575 1.11 32.91 319 40.401794362352 43.597038764241 13318.391474029 556270.88722151
155	711899 11323 239 177575 1.11 32.91 319 -1.1090650751764 0.0045407870941006 -14.526560377666 10.884939826383
154	723222 10210 239 177575 1.11 32.91 319 3.5960306001637 5.0189441690578 1583.5172532179 7871.1688678804
156	733432 5773 239 177575 1.11 32.91 319 7 7 2233 15631
168	739205 12934 980 177203 1.292107050727 32.892099732069 317 0.099998778853 0.10001182821 31.699991461882 3.1699982968285
167	752139 12934 872 177095 1.269557990685 32.869563681319 317 0.099998778853 0.10001186292 31.700004471174 3.1700008988255
166	765073 8881 980 177203 1.292107050727 32.892099732069 317 7 7 2219 15533
165	773954 8879 872 177095 1.269557990685 32.869563681319 317 7 7 2219 15533
164	782833 469 5063 172373 2 32 31 0 0 0 0
163	783302 863 5063 172373 2 32 31 0.022754065202 0.026262199331 0.810255513492 0.02118969883484
162	784165 469 5063 172373 2 32 31 7 7 217 1519
110	784634 10192 237 177578 1.11 32.92 320 0 5.0187625292681 1547.4458399632 7651.2861894694
111	794826 11157 237 177578 1.11 32.92 320 -3.1928318078962 0.019160263687247 -53.438728553051 127.63471858235
112	805983 5792 237 177578 1.11 32.92 320 5 5 1600 8000
113	811775 10241 237 177578 1.11 32.92 320 38.505648817739 43.594400297612 13316.750572093 554506.84815415
114	822016 10238 237 177578 1.11 32.92 320 61.51262550354 1385.6669006017 233286.46721159 217678522.64001
115	832254 7072 237 177578 1.11 32.92 320 36.55 36.55 11696 427488.8
116	839326 10701 237 177578 1.11 32.92 320 -2.2175555316174 1.4221569136687 -34.583587846928 317.26505071864
117	850027 10659 237 177578 1.11 32.92 320 -3.1912937486811 1.5049213281094 -48.610326015611 503.93087759324
118	860686 469 5061 172371 2 32 31 5 5 155 775
119	861155 862 5061 172371 2 32 31 0.022753125244 0.026262199367 0.810254568176 0.021189655778709
120	862017 469 5061 172371 2 32 31 0 0 0 0
121	862486 8886 860 177083 1.269557930644 32.869563633824 317 5 5 1585 7925
122	871372 8875 1112 177329 1.299602290893 32.899595004573 317 5 5 1585 7925
123	880247 12935 860 177083 1.269557930644 32.869563633824 317 0.099998778852 0.100011863781 31.70000448372 3.1700009013347
124	893182 12929 1112 177329 1.299602290893 32.899595004573 317 0.099998778842 0.100011836184 31.69999149422 3.1699983032963
