file 911553 1512142470                                          
version 2
run SinusoidalSpeedInjectionAttack-222-20171201-16:34:14-100384
attr CACCSpacing 5
attr attackAcc -30
attr attackPos 7
attr attackSpeed 100
attr attackStart 30
attr attacker 3
attr beaconInterval 0.1
attr configname SinusoidalSpeedInjectionAttack
attr controller 1
attr datetime 20171201-16:34:14
attr experiment SinusoidalSpeedInjectionAttack
attr fakeAcc "(3 == 4)"
attr fakePos "(3 == 2)"
attr fakeSpeed "(3 == 3)"
attr inifile omnetpp_222.ini
attr iterationvars "$attacker=3, $attackSpeed=100, $attackPos=7, $attackAcc=-30, $leaderSpeed=150, $controller=1, $CACCSpacing=5, $sController=\"CACC\", $attackStart=30, $0=5, $1=0, $nCars=8, $platoonSize=8, $nLanes=1, $beaconInterval=0.1, $priority=2, $packetSize=200, $ploegH=0.5, $leaderHeadway=1.2, $fakeSpeed=(3 == 3), $fakeAcc=(3 == 4), $fakePos=(3 == 2)"
attr iterationvarsf attacker=3,attackSpeed=100,attackPos=7,attackAcc=-30,leaderSpeed=150,controller=1,CACCSpacing=5,sController=CACC,attackStart=30,5,0,nCars=8,platoonSize=8,nLanes=1,beaconInterval=0.1,priority=2,packetSize=200,ploegH=0.5,leaderHeadway=1.2,fakeSpeed=(3_==_3),fakeAcc=(3_==_4),fakePos=(3_==_2)-
attr leaderHeadway 1.2
attr leaderSpeed 150
attr measurement "$attacker=3, $attackSpeed=100, $attackPos=7, $attackAcc=-30, $leaderSpeed=150, $controller=1, $CACCSpacing=5, $sController=\"CACC\", $attackStart=30, $0=5, $1=0, $nCars=8, $platoonSize=8, $nLanes=1, $beaconInterval=0.1, $priority=2, $packetSize=200, $ploegH=0.5, $leaderHeadway=1.2, $fakeSpeed=(3 == 3), $fakeAcc=(3 == 4), $fakePos=(3 == 2)"
attr nCars 8
attr nLanes 1
attr network scenario
attr packetSize 200
attr platoonSize 8
attr ploegH 0.5
attr priority 2
attr processid 100384
attr repetition 2
attr replication #2
attr resultdir results
attr runnumber 222
attr sController "\"CACC\""
attr seedset 2
param **.coreDebug false
param **.debug false
param **.headway 0.1s
param **.numberOfCars 8
param **.numberOfCarsPerPlatoon 8
param **.numberOfLanes 1
param **.numericController 1
param **.traffic.nCars 8
param **.traffic.nLanes 1
param **.traffic.platoonInsertDistance 5m
param **.traffic.platoonInsertHeadway 0s
param **.traffic.platoonInsertSpeed 150kmph
param **.traffic.platoonInsertTime "1 s"
param **.traffic.platoonLeaderHeadway 1.2s
param **.traffic.platoonSize 8
param **.traffic.platooningVType "\"vtypeauto\""
param **.traffic_type "\"PlatoonsTrafficManager\""
param *.**.nic.mac1609_4.bitrate 6Mbps
param *.**.nic.mac1609_4.txPower 100mW
param *.**.nic.mac1609_4.useServiceChannel false
param *.**.nic.phy80211p.analogueModels "xmldoc(\"config.xml\")"
param *.**.nic.phy80211p.decider "xmldoc(\"config.xml\")"
param *.**.nic.phy80211p.maxTXPower 100mW
param *.**.nic.phy80211p.sensitivity -94dBm
param *.**.nic.phy80211p.thermalNoise -95dBm
param *.**.nic.phy80211p.usePropagationDelay true
param *.**.nic.phy80211p.useThermalNoise true
param *.annotations.draw false
param *.connectionManager.alpha 2.0
param *.connectionManager.carrierFrequency "5.890e9 Hz"
param *.connectionManager.pMax 100mW
param *.connectionManager.sat -94dBm
param *.connectionManager.sendDirect true
param *.manager.autoShutdown true
param *.manager.commandLine "\"sumo --remote-port $port --seed $seed --configuration-file $configFile\""
param *.manager.configFile "\"./sumocfg/freeway.sumo.cfg\""
param *.manager.host "\"localhost\""
param *.manager.margin 25
param *.manager.moduleDisplayString "\"\""
param *.manager.moduleName "\"node\""
param *.manager.moduleType "\"Car\""
param *.manager.updateInterval 0.01s
param *.node[*].appl.attackStart 30s
param *.node[*].appl.attackerType 3
param *.node[*].appl.simulationDuration "60 s"
param *.node[*].appl_type "\"SimplePlatooningApp\""
param *.node[*].helper.nCars 8
param *.node[*].helper.nLanes 1
param *.node[*].helper.platoonSize 8
param *.node[*].helper_type "\"PositionHelper\""
param *.node[*].mobility.x 0
param *.node[*].mobility.y 0
param *.node[*].mobility.z 1.895
param *.node[*].prot.attackStart 30s
param *.node[*].prot.attackerType 3
param *.node[*].prot.attackingNode 3
param *.node[*].prot.beaconingInterval 0.1s
param *.node[*].prot.fakeAcc "(3 == 4)"
param *.node[*].prot.fakePos "(3 == 2)"
param *.node[*].prot.fakeSpeed "(3 == 3)"
param *.node[*].prot.maliciousAcc "-30 mpss"
param *.node[*].prot.maliciousSpeed 100kmph
param *.node[*].prot.packetSize 200
param *.node[*].prot.priority 2
param *.node[*].prot.shiftX "7 m"
param *.node[*].prot.useControllerAcceleration true
param *.node[*].protocol_type "\"SimplePlatooningBeaconing\""
param *.node[*].scenario.accHeadway 0.1s
param *.node[*].scenario.caccC1 0.5
param *.node[*].scenario.caccOmegaN "0.2 Hz"
param *.node[*].scenario.caccSpacing 5m
param *.node[*].scenario.caccXi 1
param *.node[*].scenario.controller "\"CACC\""
param *.node[*].scenario.engineTau "0.5 s"
param *.node[*].scenario.leaderHeadway 1.2s
param *.node[*].scenario.leaderSpeed 150kmph
param *.node[*].scenario.ploegH 0.5s
param *.node[*].scenario.ploegKd 0.7
param *.node[*].scenario.ploegKp 0.2
param *.node[*].scenario.useRealisticEngine false
param *.node[*].scenario_type "\"SinusoidalScenario\""
param *.node[*].unicast.packetLossRate 0
param *.obstacles.debug false
param *.playgroundSizeX 65000m
param *.playgroundSizeY 25000m
param *.playgroundSizeZ 50m
param *.world.use2D false
param *.world.useTorus false

vector 0  scenario.node[0].appl  distance  ETV
vector 1  scenario.node[0].appl  relativeSpeed  ETV
vector 2  scenario.node[0].appl  nodeId  ETV
vector 6  scenario.node[0].appl  acceleration  ETV
vector 7  scenario.node[0].appl  controllerAcceleration  ETV
vector 3  scenario.node[0].appl  speed  ETV
vector 4  scenario.node[0].appl  posx  ETV
vector 5  scenario.node[0].appl  posy  ETV
vector 22  scenario.node[1].appl  distance  ETV
vector 23  scenario.node[1].appl  relativeSpeed  ETV
vector 24  scenario.node[1].appl  nodeId  ETV
vector 28  scenario.node[1].appl  acceleration  ETV
vector 29  scenario.node[1].appl  controllerAcceleration  ETV
vector 25  scenario.node[1].appl  speed  ETV
vector 26  scenario.node[1].appl  posx  ETV
vector 27  scenario.node[1].appl  posy  ETV
vector 44  scenario.node[2].appl  distance  ETV
vector 45  scenario.node[2].appl  relativeSpeed  ETV
vector 46  scenario.node[2].appl  nodeId  ETV
vector 50  scenario.node[2].appl  acceleration  ETV
vector 51  scenario.node[2].appl  controllerAcceleration  ETV
vector 47  scenario.node[2].appl  speed  ETV
vector 48  scenario.node[2].appl  posx  ETV
vector 49  scenario.node[2].appl  posy  ETV
vector 66  scenario.node[3].appl  distance  ETV
vector 67  scenario.node[3].appl  relativeSpeed  ETV
vector 68  scenario.node[3].appl  nodeId  ETV
vector 72  scenario.node[3].appl  acceleration  ETV
vector 73  scenario.node[3].appl  controllerAcceleration  ETV
vector 69  scenario.node[3].appl  speed  ETV
vector 70  scenario.node[3].appl  posx  ETV
vector 71  scenario.node[3].appl  posy  ETV
vector 88  scenario.node[4].appl  distance  ETV
vector 89  scenario.node[4].appl  relativeSpeed  ETV
vector 90  scenario.node[4].appl  nodeId  ETV
vector 94  scenario.node[4].appl  acceleration  ETV
vector 95  scenario.node[4].appl  controllerAcceleration  ETV
vector 91  scenario.node[4].appl  speed  ETV
vector 92  scenario.node[4].appl  posx  ETV
vector 93  scenario.node[4].appl  posy  ETV
vector 110  scenario.node[5].appl  distance  ETV
vector 111  scenario.node[5].appl  relativeSpeed  ETV
vector 112  scenario.node[5].appl  nodeId  ETV
vector 116  scenario.node[5].appl  acceleration  ETV
vector 117  scenario.node[5].appl  controllerAcceleration  ETV
vector 113  scenario.node[5].appl  speed  ETV
vector 114  scenario.node[5].appl  posx  ETV
vector 115  scenario.node[5].appl  posy  ETV
vector 132  scenario.node[6].appl  distance  ETV
vector 133  scenario.node[6].appl  relativeSpeed  ETV
vector 134  scenario.node[6].appl  nodeId  ETV
vector 138  scenario.node[6].appl  acceleration  ETV
vector 139  scenario.node[6].appl  controllerAcceleration  ETV
vector 135  scenario.node[6].appl  speed  ETV
vector 136  scenario.node[6].appl  posx  ETV
vector 137  scenario.node[6].appl  posy  ETV
vector 154  scenario.node[7].appl  distance  ETV
vector 155  scenario.node[7].appl  relativeSpeed  ETV
vector 156  scenario.node[7].appl  nodeId  ETV
vector 160  scenario.node[7].appl  acceleration  ETV
vector 161  scenario.node[7].appl  controllerAcceleration  ETV
vector 157  scenario.node[7].appl  speed  ETV
vector 158  scenario.node[7].appl  posx  ETV
vector 159  scenario.node[7].appl  posy  ETV
vector 168  scenario.node[7].prot  frontDelay  ETV
vector 166  scenario.node[7].prot  frontDelayId  ETV
vector 146  scenario.node[6].prot  frontDelay  ETV
vector 144  scenario.node[6].prot  frontDelayId  ETV
vector 35  scenario.node[1].prot  leaderDelay  ETV
vector 33  scenario.node[1].prot  leaderDelayId  ETV
vector 36  scenario.node[1].prot  frontDelay  ETV
vector 34  scenario.node[1].prot  frontDelayId  ETV
vector 57  scenario.node[2].prot  leaderDelay  ETV
vector 55  scenario.node[2].prot  leaderDelayId  ETV
vector 79  scenario.node[3].prot  leaderDelay  ETV
vector 77  scenario.node[3].prot  leaderDelayId  ETV
vector 101  scenario.node[4].prot  leaderDelay  ETV
vector 99  scenario.node[4].prot  leaderDelayId  ETV
vector 123  scenario.node[5].prot  leaderDelay  ETV
vector 121  scenario.node[5].prot  leaderDelayId  ETV
vector 145  scenario.node[6].prot  leaderDelay  ETV
vector 143  scenario.node[6].prot  leaderDelayId  ETV
vector 167  scenario.node[7].prot  leaderDelay  ETV
vector 165  scenario.node[7].prot  leaderDelayId  ETV
vector 102  scenario.node[4].prot  frontDelay  ETV
vector 100  scenario.node[4].prot  frontDelayId  ETV
vector 80  scenario.node[3].prot  frontDelay  ETV
vector 78  scenario.node[3].prot  frontDelayId  ETV
vector 124  scenario.node[5].prot  frontDelay  ETV
vector 122  scenario.node[5].prot  frontDelayId  ETV
vector 58  scenario.node[2].prot  frontDelay  ETV
vector 56  scenario.node[2].prot  frontDelayId  ETV
vector 8  scenario.node[0].prot  nodeId  ETV
vector 9  scenario.node[0].prot  busyTime  ETV
vector 10  scenario.node[0].prot  collisions  ETV
vector 30  scenario.node[1].prot  nodeId  ETV
vector 31  scenario.node[1].prot  busyTime  ETV
vector 32  scenario.node[1].prot  collisions  ETV
vector 52  scenario.node[2].prot  nodeId  ETV
vector 53  scenario.node[2].prot  busyTime  ETV
vector 54  scenario.node[2].prot  collisions  ETV
vector 74  scenario.node[3].prot  nodeId  ETV
vector 75  scenario.node[3].prot  busyTime  ETV
vector 76  scenario.node[3].prot  collisions  ETV
vector 96  scenario.node[4].prot  nodeId  ETV
vector 97  scenario.node[4].prot  busyTime  ETV
vector 98  scenario.node[4].prot  collisions  ETV
vector 118  scenario.node[5].prot  nodeId  ETV
vector 119  scenario.node[5].prot  busyTime  ETV
vector 120  scenario.node[5].prot  collisions  ETV
vector 140  scenario.node[6].prot  nodeId  ETV
vector 141  scenario.node[6].prot  busyTime  ETV
vector 142  scenario.node[6].prot  collisions  ETV
vector 162  scenario.node[7].prot  nodeId  ETV
vector 163  scenario.node[7].prot  busyTime  ETV
vector 164  scenario.node[7].prot  collisions  ETV
7	11090 7662 232 178690 1.11 33.11 321 -1.5 1.5 4.7460145522981 507.3098403155
6	18752 10070 232 178690 1.11 33.11 321 -1.4722746794739 1.4513407705138 9.8556939732291 337.70395687602
5	28822 6453 232 178690 1.11 33.11 321 36.55 36.55 11732.55 428824.7025
4	35275 9629 232 178690 1.11 33.11 321 102.0599697109 1439.9219691378 247766.75773193 239364661.89955
3	44904 9614 232 178690 1.11 33.11 321 40.376926150007 43.631381416411 13420.638762686 561339.70066255
1	54518 5169 232 178690 1.11 33.11 321 0 0 0 0
0	59687 5490 232 178690 1.11 33.11 321 -1 -1 -321 321
2	65177 5169 232 178690 1.11 33.11 321 0 0 0 0
10	70346 453 5168 178056 2 33 32 0 0 0 0
9	70799 614 5168 178056 2 33 32 0.023297 0.02625 0.837047 0.021903687709
8	71413 421 5168 178056 2 33 32 0 0 0 0
29	71834 10320 233 178691 1.11 33.11 321 -1.5233934309834 1.5241491857569 5.9307275208434 512.95921892087
28	82154 10367 233 178691 1.11 33.11 321 -1.4872877339691 1.4632119882357 10.576332130121 340.85606161377
27	92521 6774 233 178691 1.11 33.11 321 36.55 36.55 11732.55 428824.7025
26	99295 9937 233 178691 1.11 33.11 321 93.059965896607 1430.8511017733 244874.68221416 234927270.59416
25	109232 9958 233 178691 1.11 33.11 321 40.369384337985 43.636794094665 13419.955152943 561285.0562375
23	119190 10861 233 178691 1.11 33.11 321 -0.085370867627489 0.085492727013758 0.58505280285272 1.225208155033
22	130051 9951 233 178691 1.11 33.11 321 4.9094714737253 5.1291568444871 1608.0618455755 8056.7970127208
24	140002 5490 233 178691 1.11 33.11 321 1 1 321 321
36	145492 12761 1034 178936 1.262216930646 33.162219518729 320 0.099998659109 0.100011732137 32.000001248541 3.2000002547106
35	158253 12761 1034 178936 1.262216930646 33.162219518729 320 0.099998659109 0.100011732137 32.000001248541 3.2000002547106
34	171014 8634 1034 178936 1.262216930646 33.162219518729 320 1 1 320 320
33	179648 8634 1034 178936 1.262216930646 33.162219518729 320 1 1 320 320
32	188282 453 5169 178057 2 33 32 0 0 0 0
31	188735 646 5169 178057 2 33 32 0.023296 0.02625 0.837046 0.021903641116
30	189381 453 5169 178057 2 33 32 1 1 32 32
51	189834 10290 234 178692 1.11 33.11 321 -1.4963007059154 1.4967154537035 6.4366458858276 491.90743894457
50	200124 10357 234 178692 1.11 33.11 321 -1.4778825524118 1.4526090799222 10.700877718049 337.46392504093
49	210481 6774 234 178692 1.11 33.11 321 36.55 36.55 11732.55 428824.7025
48	217255 9953 234 178692 1.11 33.11 321 84.059965896606 1421.8278403064 241984.31206874 230544194.11378
47	227208 9946 234 178692 1.11 33.11 321 40.375617874812 43.631086110555 13419.726352495 561263.39858996
45	237154 10954 234 178692 1.11 33.11 321 -0.019406090074334 0.017598480801212 0.12303712696578 0.034746122990501
44	248108 9944 234 178692 1.11 33.11 321 4.9758459001321 5.0458891911319 1606.3655694092 8038.7609100094
46	258052 5490 234 178692 1.11 33.11 321 2 2 642 1284
58	263542 12740 1312 178652 1.302609200833 33.102600116381 319 0.099998659095 0.100011706668 31.900002576006 3.1900005202007
57	276282 12763 1040 178942 1.262216960667 33.162219548825 320 0.099998659109 0.100011732136 32.000001248616 3.2000002547256
56	289045 8622 1312 178652 1.302609200833 33.102600116381 319 2 2 638 1276
55	297667 8641 1040 178942 1.262216960667 33.162219548825 320 2 2 640 1280
54	306308 453 5170 178058 2 33 32 0 0 0 0
53	306761 646 5170 178058 2 33 32 0.023297 0.02625 0.837047 0.021903687709
52	307407 453 5170 178058 2 33 32 2 2 64 128
73	307860 10317 235 178693 1.11 33.11 321 -1.5144504221291 1.515444161316 6.2409960069958 502.78352152719
72	318177 10377 235 178693 1.11 33.11 321 -1.4663369074121 1.4406243150759 10.718360556413 331.43152435782
71	328554 6774 235 178693 1.11 33.11 321 36.55 36.55 11732.55 428824.7025
70	335328 9948 235 178693 1.11 33.11 321 75.059965896606 1412.8101110653 239093.98592214 226213430.67547
69	345276 9958 235 178693 1.11 33.11 321 40.387229104666 43.618611456843 13419.549766156 561244.66639832
67	355234 11011 235 178693 1.11 33.11 321 -0.015760221720797 0.014948745126567 0.069577562069377 0.019757630918659
66	366245 9926 235 178693 1.11 33.11 321 4.9816113329605 5.040652675124 1606.3226148692 8038.2970322084
68	376171 5490 235 178693 1.11 33.11 321 3 3 963 2889
80	381661 12733 1176 178515 1.287873050729 33.087876895937 319 0.099998659098 0.100011707381 31.900002505666 3.1900005061329
79	394394 12776 1046 178948 1.262216990687 33.162219578905 320 0.099998659105 0.100011732137 32.000001248676 3.2000002547376
78	407170 8619 1176 178515 1.287873050729 33.087876895937 319 3 3 957 2871
77	415789 8640 1046 178948 1.262216990687 33.162219578905 320 3 3 960 2880
76	424429 453 5171 178059 2 33 32 0 0 0 0
75	424882 646 5171 178059 2 33 32 0.023297 0.02625 0.837047 0.021903687709
74	425528 453 5171 178059 2 33 32 3 3 96 288
95	425981 10351 236 178694 1.11 33.11 321 -3.0877473549297 1.503235701476 -75.557019513622 568.2228650785
94	436332 10379 236 178694 1.11 33.11 321 -2.516405875047 1.4309616969605 -61.598138315458 378.96593018994
93	446711 6774 236 178694 1.11 33.11 321 36.55 36.55 11732.55 428824.7025
92	453485 9945 236 178694 1.11 33.11 321 66.059965896606 1393.1199831897 236096.79049731 221641311.85316
91	463430 9944 236 178694 1.11 33.11 321 35.623232273269 43.605851026972 13310.131437051 552529.18358226
89	473374 10903 236 178694 1.11 33.11 321 -0.013273963562213 7.1601885354825 109.31114549904 552.51503166951
88	484277 9925 236 178694 1.11 33.11 321 4.9908448381341 15.547081457044 1711.0070582468 9775.9508596343
90	494202 5490 236 178694 1.11 33.11 321 4 4 1284 5136
102	499692 13062 1108 179016 1.276579020708 33.176581646032 320 0.099998659103 0.100011709294 32.000001285782 3.2000002621577
101	512754 13055 1052 178954 1.262217020708 33.162219645789 320 0.099998659103 0.100011734411 32.000001285539 3.2000002621102
100	525809 8942 1108 179016 1.276579020708 33.176581646032 320 4 4 1280 5120
99	534751 8616 1052 178954 1.262217020708 33.162219645789 320 4 4 1280 5120
98	543367 453 5172 178060 2 33 32 0 0 0 0
97	543820 646 5172 178060 2 33 32 0.023297 0.02625 0.837047 0.021903687709
96	544466 453 5172 178060 2 33 32 4 4 128 512
139	544919 10657 238 178696 1.11 33.11 321 -2.5320430757409 1.4958357627283 -23.894190789441 480.6156083153
138	555576 10721 238 178696 1.11 33.11 321 -1.8120728578275 1.4357065190943 -14.577855338975 312.16583378827
137	566297 7095 238 178696 1.11 33.11 321 36.55 36.55 11732.55 428824.7025
136	573392 10271 238 178696 1.11 33.11 321 48.059967803955 1382.6404006462 230394.20588293 213452911.56851
135	583663 10271 238 178696 1.11 33.11 321 40.293710868621 43.610545936766 13386.975200013 558533.33798937
133	593934 11379 238 178696 1.11 33.11 321 -1.7788882438049 0.011156223634529 -27.408737495419 34.544146125797
132	605313 10259 238 178696 1.11 33.11 321 2.3257140345374 5.0279109151694 1579.2444687498 7812.3127541709
134	615572 5811 238 178696 1.11 33.11 321 6 6 1926 11556
146	621383 13092 970 178872 1.247594780542 33.147597338768 320 0.099998659092 0.100011715088 32.000001218684 3.2000002487385
145	634475 13070 1064 178966 1.26221708075 33.162219679961 320 0.099998659106 0.100011732901 32.000001259669 3.2000002569362
144	647545 8956 970 178872 1.247594780542 33.147597338768 320 6 6 1920 11520
143	656501 8954 1064 178966 1.26221708075 33.162219679961 320 6 6 1920 11520
142	665455 485 5174 178062 2 33 32 0 0 0 0
141	665940 678 5174 178062 2 33 32 0.023297 0.02625 0.837047 0.021903687709
140	666618 485 5174 178062 2 33 32 6 6 192 1152
161	667103 10662 239 178697 1.11 33.11 321 -2.2128632984637 1.4867112329006 -10.812522163722 468.76663509401
160	677765 10713 239 178697 1.11 33.11 321 -1.4639058754781 1.4301187318303 -3.636775607017 312.97503578834
159	688478 7095 239 178697 1.11 33.11 321 36.55 36.55 11732.55 428824.7025
158	695573 10265 239 178697 1.11 33.11 321 39.059966850281 1375.1346475918 227518.54888004 209369395.66578
157	705838 10272 239 178697 1.11 33.11 321 40.397507109525 43.604433767827 13402.297163366 559792.34374522
155	716110 11391 239 178697 1.11 33.11 321 -1.0574977319535 0.0095544623327797 -15.176184799388 11.094981223031
154	727501 10268 239 178697 1.11 33.11 321 3.5272654236021 5.01490877455 1591.9634421548 7907.584544628
156	737769 5811 239 178697 1.11 33.11 321 7 7 2247 15729
168	743580 13095 832 178734 1.212136690479 33.112126272049 320 0.09999865909 0.100011698265 31.999988242028 3.1999976532724
167	756675 13086 1070 178972 1.26221711077 33.162219704816 320 0.099998659102 0.100011732565 32.000001254504 3.2000002559032
166	769761 8970 832 178734 1.212136690479 33.112126272049 320 7 7 2240 15680
165	778731 8954 1070 178972 1.26221711077 33.162219704816 320 7 7 2240 15680
164	787685 485 5175 178063 2 33 32 0 0 0 0
163	788170 678 5175 178063 2 33 32 0.023297 0.02625 0.837047 0.021903687709
162	788848 485 5175 178063 2 33 32 7 7 224 1568
110	789333 10302 237 179042 1.11 33.18 322 0 5.0245318497509 1556.8770208976 7692.9994966333
111	799635 11164 237 179042 1.11 33.18 322 -2.865383487327 0.032962812876292 -51.357122559181 113.32539301837
112	810799 5830 237 179042 1.11 33.18 322 5 5 1610 8050
113	816629 10308 237 179042 1.11 33.18 322 38.334498538974 43.607099759179 13397.573656045 557775.33040561
114	826937 10305 237 179042 1.11 33.18 322 57.059967803955 1391.6166951784 234648.512326 219489155.33234
115	837242 7118 237 179042 1.11 33.18 322 36.55 36.55 11769.1 430160.605
116	844360 10775 237 179042 1.11 33.18 322 -2.2930989064413 1.433084252983 -35.023600072639 326.65119829568
117	855135 10709 237 179042 1.11 33.18 322 -2.886623959082 1.5107019059802 -48.294285027518 513.34279300129
118	865844 485 5173 178061 2 33 32 5 5 160 800
119	866329 678 5173 178061 2 33 32 0.023297 0.02625 0.837047 0.021903687709
120	867007 485 5173 178061 2 33 32 0 0 0 0
121	867492 8972 1058 178960 1.262217050729 33.162219659284 320 5 5 1600 8000
122	876464 8938 1244 178583 1.297503110771 33.097506975068 319 5 5 1595 7975
123	885402 13105 1058 178960 1.262217050729 33.162219659284 320 0.099998659103 0.100011733475 32.000001269013 3.200000258805
124	898507 13046 1244 178583 1.297503110771 33.097506975068 319 0.0999986591 0.100011713148 31.900002524755 3.1900005099509
