file 984005 1501696283                                          
version 2
run SinusoidalSpeedInjectionAttack-247-20170802-19:51:05-69058
attr CACCSpacing 20
attr attackAcc -30
attr attackPos 7
attr attackSpeed 150
attr attackStart 30
attr attacker 3
attr beaconInterval 0.1
attr configname SinusoidalSpeedInjectionAttack
attr controller 1
attr datetime 20170802-19:51:05
attr experiment SinusoidalSpeedInjectionAttack
attr fakeAcc "(3 == 4)"
attr fakePos "(3 == 2)"
attr fakeSpeed "(3 == 3)"
attr inifile omnetpp_247.ini
attr iterationvars "$attacker=3, $attackSpeed=150, $attackPos=7, $attackAcc=-30, $leaderSpeed=50, $controller=1, $CACCSpacing=20, $sController=\"CACC\", $attackStart=30, $0=20, $1=0, $nCars=8, $platoonSize=8, $nLanes=1, $beaconInterval=0.1, $priority=2, $packetSize=200, $ploegH=0.5, $leaderHeadway=1.2, $fakeSpeed=(3 == 3), $fakeAcc=(3 == 4), $fakePos=(3 == 2)"
attr iterationvarsf attacker=3,attackSpeed=150,attackPos=7,attackAcc=-30,leaderSpeed=50,controller=1,CACCSpacing=20,sController=CACC,attackStart=30,20,0,nCars=8,platoonSize=8,nLanes=1,beaconInterval=0.1,priority=2,packetSize=200,ploegH=0.5,leaderHeadway=1.2,fakeSpeed=(3_==_3),fakeAcc=(3_==_4),fakePos=(3_==_2)-
attr leaderHeadway 1.2
attr leaderSpeed 50
attr measurement "$attacker=3, $attackSpeed=150, $attackPos=7, $attackAcc=-30, $leaderSpeed=50, $controller=1, $CACCSpacing=20, $sController=\"CACC\", $attackStart=30, $0=20, $1=0, $nCars=8, $platoonSize=8, $nLanes=1, $beaconInterval=0.1, $priority=2, $packetSize=200, $ploegH=0.5, $leaderHeadway=1.2, $fakeSpeed=(3 == 3), $fakeAcc=(3 == 4), $fakePos=(3 == 2)"
attr nCars 8
attr nLanes 1
attr network scenario
attr packetSize 200
attr platoonSize 8
attr ploegH 0.5
attr priority 2
attr processid 69058
attr repetition 2
attr replication #2
attr resultdir results
attr runnumber 247
attr sController "\"CACC\""
attr seedset 2
param **.coreDebug false
param **.debug false
param **.headway 0.1s
param **.numberOfCars 8
param **.numberOfCarsPerPlatoon 8
param **.numberOfLanes 1
param **.numericController 1
param **.traffic.nCars 8
param **.traffic.nLanes 1
param **.traffic.platoonInsertDistance 20m
param **.traffic.platoonInsertHeadway 0s
param **.traffic.platoonInsertSpeed 50kmph
param **.traffic.platoonInsertTime "1 s"
param **.traffic.platoonLeaderHeadway 1.2s
param **.traffic.platoonSize 8
param **.traffic.platooningVType "\"vtypeauto\""
param **.traffic_type "\"PlatoonsTrafficManager\""
param *.**.nic.mac1609_4.bitrate 6Mbps
param *.**.nic.mac1609_4.txPower 100mW
param *.**.nic.mac1609_4.useServiceChannel false
param *.**.nic.phy80211p.analogueModels "xmldoc(\"config.xml\")"
param *.**.nic.phy80211p.decider "xmldoc(\"config.xml\")"
param *.**.nic.phy80211p.maxTXPower 100mW
param *.**.nic.phy80211p.sensitivity -94dBm
param *.**.nic.phy80211p.thermalNoise -95dBm
param *.**.nic.phy80211p.usePropagationDelay true
param *.**.nic.phy80211p.useThermalNoise true
param *.annotations.draw false
param *.connectionManager.alpha 2.0
param *.connectionManager.carrierFrequency "5.890e9 Hz"
param *.connectionManager.pMax 100mW
param *.connectionManager.sat -94dBm
param *.connectionManager.sendDirect true
param *.manager.autoShutdown true
param *.manager.commandLine "\"sumo --remote-port $port --seed $seed --configuration-file $configFile\""
param *.manager.configFile "\"./sumocfg/freeway.sumo.cfg\""
param *.manager.host "\"localhost\""
param *.manager.margin 25
param *.manager.moduleDisplayString "\"\""
param *.manager.moduleName "\"node\""
param *.manager.moduleType "\"Car\""
param *.manager.updateInterval 0.01s
param *.node[*].appl.attackStart 30s
param *.node[*].appl.attackerType 3
param *.node[*].appl.simulationDuration "60 s"
param *.node[*].appl_type "\"SimplePlatooningApp\""
param *.node[*].helper.nCars 8
param *.node[*].helper.nLanes 1
param *.node[*].helper.platoonSize 8
param *.node[*].helper_type "\"PositionHelper\""
param *.node[*].mobility.x 0
param *.node[*].mobility.y 0
param *.node[*].mobility.z 1.895
param *.node[*].prot.attackStart 30s
param *.node[*].prot.attackerType 3
param *.node[*].prot.attackingNode 3
param *.node[*].prot.beaconingInterval 0.1s
param *.node[*].prot.fakeAcc "(3 == 4)"
param *.node[*].prot.fakePos "(3 == 2)"
param *.node[*].prot.fakeSpeed "(3 == 3)"
param *.node[*].prot.maliciousAcc "-30 mpss"
param *.node[*].prot.maliciousSpeed 150kmph
param *.node[*].prot.packetSize 200
param *.node[*].prot.priority 2
param *.node[*].prot.shiftX "7 m"
param *.node[*].prot.useControllerAcceleration true
param *.node[*].protocol_type "\"SimplePlatooningBeaconing\""
param *.node[*].scenario.accHeadway 0.1s
param *.node[*].scenario.caccC1 0.5
param *.node[*].scenario.caccOmegaN "0.2 Hz"
param *.node[*].scenario.caccSpacing 20m
param *.node[*].scenario.caccXi 1
param *.node[*].scenario.controller "\"CACC\""
param *.node[*].scenario.engineTau "0.5 s"
param *.node[*].scenario.leaderHeadway 1.2s
param *.node[*].scenario.leaderOscillationFrequency "0.2 Hz"
param *.node[*].scenario.leaderSpeed 50kmph
param *.node[*].scenario.oscillationAmplitude "10 kmph"
param *.node[*].scenario.ploegH 0.5s
param *.node[*].scenario.ploegKd 0.7
param *.node[*].scenario.ploegKp 0.2
param *.node[*].scenario.startOscillating "5 s"
param *.node[*].scenario.useRealisticEngine false
param *.node[*].scenario_type "\"SinusoidalScenario\""
param *.node[*].unicast.packetLossRate 0
param *.obstacles.debug false
param *.playgroundSizeX 65000m
param *.playgroundSizeY 25000m
param *.playgroundSizeZ 50m
param *.world.use2D false
param *.world.useTorus false

vector 0  scenario.node[0].appl  distance  ETV
vector 1  scenario.node[0].appl  relativeSpeed  ETV
vector 2  scenario.node[0].appl  nodeId  ETV
vector 6  scenario.node[0].appl  acceleration  ETV
vector 7  scenario.node[0].appl  controllerAcceleration  ETV
vector 3  scenario.node[0].appl  speed  ETV
vector 4  scenario.node[0].appl  posx  ETV
vector 5  scenario.node[0].appl  posy  ETV
vector 22  scenario.node[1].appl  distance  ETV
vector 23  scenario.node[1].appl  relativeSpeed  ETV
vector 24  scenario.node[1].appl  nodeId  ETV
vector 28  scenario.node[1].appl  acceleration  ETV
vector 29  scenario.node[1].appl  controllerAcceleration  ETV
vector 25  scenario.node[1].appl  speed  ETV
vector 26  scenario.node[1].appl  posx  ETV
vector 27  scenario.node[1].appl  posy  ETV
vector 44  scenario.node[2].appl  distance  ETV
vector 45  scenario.node[2].appl  relativeSpeed  ETV
vector 46  scenario.node[2].appl  nodeId  ETV
vector 50  scenario.node[2].appl  acceleration  ETV
vector 51  scenario.node[2].appl  controllerAcceleration  ETV
vector 47  scenario.node[2].appl  speed  ETV
vector 48  scenario.node[2].appl  posx  ETV
vector 49  scenario.node[2].appl  posy  ETV
vector 66  scenario.node[3].appl  distance  ETV
vector 67  scenario.node[3].appl  relativeSpeed  ETV
vector 68  scenario.node[3].appl  nodeId  ETV
vector 72  scenario.node[3].appl  acceleration  ETV
vector 73  scenario.node[3].appl  controllerAcceleration  ETV
vector 69  scenario.node[3].appl  speed  ETV
vector 70  scenario.node[3].appl  posx  ETV
vector 71  scenario.node[3].appl  posy  ETV
vector 88  scenario.node[4].appl  distance  ETV
vector 89  scenario.node[4].appl  relativeSpeed  ETV
vector 90  scenario.node[4].appl  nodeId  ETV
vector 94  scenario.node[4].appl  acceleration  ETV
vector 95  scenario.node[4].appl  controllerAcceleration  ETV
vector 91  scenario.node[4].appl  speed  ETV
vector 92  scenario.node[4].appl  posx  ETV
vector 93  scenario.node[4].appl  posy  ETV
vector 110  scenario.node[5].appl  distance  ETV
vector 111  scenario.node[5].appl  relativeSpeed  ETV
vector 112  scenario.node[5].appl  nodeId  ETV
vector 116  scenario.node[5].appl  acceleration  ETV
vector 117  scenario.node[5].appl  controllerAcceleration  ETV
vector 113  scenario.node[5].appl  speed  ETV
vector 114  scenario.node[5].appl  posx  ETV
vector 115  scenario.node[5].appl  posy  ETV
vector 132  scenario.node[6].appl  distance  ETV
vector 133  scenario.node[6].appl  relativeSpeed  ETV
vector 134  scenario.node[6].appl  nodeId  ETV
vector 138  scenario.node[6].appl  acceleration  ETV
vector 139  scenario.node[6].appl  controllerAcceleration  ETV
vector 135  scenario.node[6].appl  speed  ETV
vector 136  scenario.node[6].appl  posx  ETV
vector 137  scenario.node[6].appl  posy  ETV
vector 154  scenario.node[7].appl  distance  ETV
vector 155  scenario.node[7].appl  relativeSpeed  ETV
vector 156  scenario.node[7].appl  nodeId  ETV
vector 160  scenario.node[7].appl  acceleration  ETV
vector 161  scenario.node[7].appl  controllerAcceleration  ETV
vector 157  scenario.node[7].appl  speed  ETV
vector 158  scenario.node[7].appl  posx  ETV
vector 159  scenario.node[7].appl  posy  ETV
vector 168  scenario.node[7].prot  frontDelay  ETV
vector 166  scenario.node[7].prot  frontDelayId  ETV
vector 146  scenario.node[6].prot  frontDelay  ETV
vector 144  scenario.node[6].prot  frontDelayId  ETV
vector 35  scenario.node[1].prot  leaderDelay  ETV
vector 33  scenario.node[1].prot  leaderDelayId  ETV
vector 36  scenario.node[1].prot  frontDelay  ETV
vector 34  scenario.node[1].prot  frontDelayId  ETV
vector 57  scenario.node[2].prot  leaderDelay  ETV
vector 55  scenario.node[2].prot  leaderDelayId  ETV
vector 79  scenario.node[3].prot  leaderDelay  ETV
vector 77  scenario.node[3].prot  leaderDelayId  ETV
vector 101  scenario.node[4].prot  leaderDelay  ETV
vector 99  scenario.node[4].prot  leaderDelayId  ETV
vector 123  scenario.node[5].prot  leaderDelay  ETV
vector 121  scenario.node[5].prot  leaderDelayId  ETV
vector 145  scenario.node[6].prot  leaderDelay  ETV
vector 143  scenario.node[6].prot  leaderDelayId  ETV
vector 167  scenario.node[7].prot  leaderDelay  ETV
vector 165  scenario.node[7].prot  leaderDelayId  ETV
vector 102  scenario.node[4].prot  frontDelay  ETV
vector 100  scenario.node[4].prot  frontDelayId  ETV
vector 80  scenario.node[3].prot  frontDelay  ETV
vector 78  scenario.node[3].prot  frontDelayId  ETV
vector 124  scenario.node[5].prot  frontDelay  ETV
vector 122  scenario.node[5].prot  frontDelayId  ETV
vector 58  scenario.node[2].prot  frontDelay  ETV
vector 56  scenario.node[2].prot  frontDelayId  ETV
vector 8  scenario.node[0].prot  nodeId  ETV
vector 9  scenario.node[0].prot  busyTime  ETV
vector 10  scenario.node[0].prot  collisions  ETV
vector 30  scenario.node[1].prot  nodeId  ETV
vector 31  scenario.node[1].prot  busyTime  ETV
vector 32  scenario.node[1].prot  collisions  ETV
vector 52  scenario.node[2].prot  nodeId  ETV
vector 53  scenario.node[2].prot  busyTime  ETV
vector 54  scenario.node[2].prot  collisions  ETV
vector 74  scenario.node[3].prot  nodeId  ETV
vector 75  scenario.node[3].prot  busyTime  ETV
vector 76  scenario.node[3].prot  collisions  ETV
vector 96  scenario.node[4].prot  nodeId  ETV
vector 97  scenario.node[4].prot  busyTime  ETV
vector 98  scenario.node[4].prot  collisions  ETV
vector 118  scenario.node[5].prot  nodeId  ETV
vector 119  scenario.node[5].prot  busyTime  ETV
vector 120  scenario.node[5].prot  collisions  ETV
vector 140  scenario.node[6].prot  nodeId  ETV
vector 141  scenario.node[6].prot  busyTime  ETV
vector 142  scenario.node[6].prot  collisions  ETV
vector 162  scenario.node[7].prot  nodeId  ETV
vector 163  scenario.node[7].prot  busyTime  ETV
vector 164  scenario.node[7].prot  collisions  ETV
7	11256 8254 232 193188 1.11 35.71 347 -1.5 1.5 -2.6779725339233 555.10883084302
6	19510 10893 232 193188 1.11 35.71 347 -1.472274679513 1.4513407705126 -8.8380490991373 369.65652757015
5	30403 6999 232 193188 1.11 35.71 347 36.55 36.55 12682.85 463558.1675
4	37402 10422 232 193188 1.11 35.71 347 204.28218421923 688.20786664977 155383.84960455 76402151.828829
3	47824 10430 232 193188 1.11 35.71 347 12.59908680102 15.853603639796 4852.8286242826 68128.957040934
1	58254 5611 232 193188 1.11 35.71 347 0 0 0 0
0	63865 5958 232 193188 1.11 35.71 347 -1 -1 -347 347
2	69823 5611 232 193188 1.11 35.71 347 0 0 0 0
10	75434 483 5168 189212 2 35 34 0 0 0 0
9	75917 654 5168 189212 2 35 34 0.023297 0.02625 0.889547 0.023281812709
8	76571 449 5168 189212 2 35 34 0 0 0 0
29	77020 10179 233 193189 1.11 35.71 347 -1.5201885302002 1.5215379200046 -4.9166826874529 555.06252205757
28	87199 11235 233 193189 1.11 35.71 347 -1.4845166970579 1.4492363478547 -9.5929437503729 369.52819973524
27	98434 7346 233 193189 1.11 35.71 347 36.55 36.55 12682.85 463558.1675
26	105780 10773 233 193189 1.11 35.71 347 180.28218421936 664.14447467777 147032.87232078 69120904.610086
25	116553 10770 233 193189 1.11 35.71 347 12.593700960239 15.849344566939 4852.1693464602 68110.766023049
23	127323 11766 233 193189 1.11 35.71 347 -0.083288757167692 0.092346609178076 0.74765831336585 1.3217712372559
22	139089 10776 233 193189 1.11 35.71 347 19.942679243784 20.212890322068 6962.9640982158 139721.67529283
24	149865 5958 233 193189 1.11 35.71 347 1 1 347 347
36	155823 13825 1034 193434 1.262218481716 35.762211405421 346 0.09999961483 0.100012761733 34.599992684923 3.4599985379821
35	169648 13825 1034 193434 1.262218481716 35.762211405421 346 0.09999961483 0.100012761733 34.599992684923 3.4599985379821
34	183473 9360 1034 193434 1.262218481716 35.762211405421 346 1 1 346 346
33	192833 9360 1034 193434 1.262218481716 35.762211405421 346 1 1 346 346
32	202193 483 5169 189213 2 35 34 0 0 0 0
31	202676 688 5169 189213 2 35 34 0.023296 0.02625 0.889546 0.023281766116
30	203364 483 5169 189213 2 35 34 1 1 34 34
51	203847 11147 234 193190 1.11 35.71 347 -1.4917898291341 1.4990053099557 -4.7534833140799 535.33424329248
50	214994 11225 234 193190 1.11 35.71 347 -1.4755502010074 1.4415473073999 -9.7255575645899 366.58944840222
49	226219 7346 234 193190 1.11 35.71 347 36.55 36.55 12682.85 463558.1675
48	233565 10773 234 193190 1.11 35.71 347 156.28218421936 640.13072774165 138699.43289909 62258197.271204
47	244338 10776 234 193190 1.11 35.71 347 12.597121993093 15.844083349125 4852.0264110196 68104.497684854
45	255114 11891 234 193190 1.11 35.71 347 -0.017774646240298 0.0165781677547 0.23886487808159 0.032288970434014
44	267005 10765 234 193190 1.11 35.71 347 19.984493294671 20.053060385949 6945.4365629757 139017.65795365
46	277770 5958 234 193190 1.11 35.71 347 2 2 694 1388
58	283728 13800 1312 193150 1.302598202214 35.70260438021 345 0.099999615705 0.100012763807 34.500005939214 3.4500011890016
57	297528 13832 1040 193440 1.262218561772 35.762211485525 346 0.099999614835 0.100012761742 34.599992684971 3.4599985379917
56	311360 9338 1312 193150 1.302598202214 35.70260438021 345 2 2 690 1380
55	320698 9368 1040 193440 1.262218561772 35.762211485525 346 2 2 692 1384
54	330066 483 5170 189214 2 35 34 0 0 0 0
53	330549 688 5170 189214 2 35 34 0.023297 0.02625 0.889547 0.023281812709
52	331237 483 5170 189214 2 35 34 2 2 68 136
73	331720 11088 235 193191 1.11 35.71 347 -1.5133685768604 1.5079615900626 -4.7931651296119 548.83534689224
72	342808 11256 235 193191 1.11 35.71 347 -1.4653396864322 1.4363794001717 -9.8185809940475 361.64074601041
71	354064 7346 235 193191 1.11 35.71 347 36.55 36.55 12682.85 463558.1675
70	361410 10782 235 193191 1.11 35.71 347 132.28219184875 616.16670848204 130374.49445949 55803870.484256
69	372192 10777 235 193191 1.11 35.71 347 12.605808640956 15.835137867499 4852.3830467297 68111.316509181
67	382969 11981 235 193191 1.11 35.71 347 -0.015548639735037 0.011230169041433 -0.25938013447854 0.01339023014732
66	394950 10765 235 193191 1.11 35.71 347 19.96213031092 20.035282210702 6936.9455723205 138677.95235802
68	405715 5958 235 193191 1.11 35.71 347 3 3 1041 3123
80	411673 13803 1176 193013 1.287874801937 35.687881110493 345 0.099999619513 0.100012763801 34.500006069774 3.4500012151133
79	425476 13832 1046 193446 1.262218641827 35.762211565462 346 0.099999614838 0.100012761748 34.599992684853 3.4599985379681
78	439308 9342 1176 193013 1.287874801937 35.687881110493 345 3 3 1035 3105
77	448650 9362 1046 193446 1.262218641827 35.762211565462 346 3 3 1038 3114
76	458012 483 5171 189215 2 35 34 0 0 0 0
75	458495 688 5171 189215 2 35 34 0.023297 0.02625 0.889547 0.023281812709
74	459183 483 5171 189215 2 35 34 3 3 102 306
117	459666 10567 237 193193 1.11 35.71 347 -1.5082275555439 1.5066950650914 35.465471936476 519.17980934294
116	470233 11591 237 193193 1.11 35.71 347 -1.4565901688862 1.4800901876409 29.198691032928 347.03089545876
115	481824 7693 237 193193 1.11 35.71 347 36.55 36.55 12682.85 463558.1675
114	489517 11116 237 193193 1.11 35.71 347 84.282188034058 575.608526092 113812.01368557 44191991.282154
113	500633 11120 237 193193 1.11 35.71 347 12.611225372311 16.752710498958 4928.1646948177 70348.315804433
111	511753 12001 237 193193 1.11 35.71 347 -0.030545829535782 3.1015354548374 122.83794239691 304.97849880076
110	523754 11104 237 193193 1.11 35.71 347 19.980078422551 32.230428596862 7247.7854419308 153731.96861229
112	534858 6305 237 193193 1.11 35.71 347 5 5 1735 8675
124	541163 14148 1244 193093 1.297504962048 35.697511246231 345 0.099999618222 0.100012763424 34.500006045401 3.4500012102382
123	555311 14173 1058 193458 1.262218801938 35.762211700099 346 0.09999961354 0.100012761746 34.599992659379 3.4599985328733
122	569484 9693 1244 193093 1.297504962048 35.697511246231 345 5 5 1725 8625
121	579177 9710 1058 193458 1.262218801938 35.762211700099 346 5 5 1730 8650
120	588887 517 5173 189217 2 35 34 0 0 0 0
119	589404 722 5173 189217 2 35 34 0.023297 0.02625 0.889547 0.023281812709
118	590126 517 5173 189217 2 35 34 5 5 170 850
139	590643 11385 238 193194 1.11 35.71 347 -1.4953972044243 1.5005747864466 19.793276413655 506.01565307496
138	602028 11604 238 193194 1.11 35.71 347 -1.4603980323937 1.4425270609467 13.846056080365 340.78196712767
137	613632 7693 238 193194 1.11 35.71 347 36.55 36.55 12682.85 463558.1675
136	621325 11125 238 193194 1.11 35.71 347 60.282188034058 548.33842519966 105441.77916627 38883715.410936
135	632450 11126 238 193194 1.11 35.71 347 12.609412820193 15.830717199506 4894.9267646018 69313.169106503
133	643576 12200 238 193194 1.11 35.71 347 -0.010290745006985 1.520620522969 32.945943305588 38.738314112704
132	655776 11112 238 193194 1.11 35.71 347 19.969451334189 23.239443511503 6981.5697606959 140548.48939333
134	666888 6305 238 193194 1.11 35.71 347 6 6 2082 12492
146	673193 14177 970 193364 1.247596081439 35.747602041048 346 0.099999616582 0.100012762725 34.600005720827 3.460001145323
145	687370 14190 1064 193464 1.262218881993 35.762211791318 346 0.099999614051 0.100012761754 34.599992670543 3.4599985351061
144	701560 9717 970 193364 1.247596081439 35.747602041048 346 6 6 2076 12456
143	711277 9719 1064 193464 1.262218881993 35.762211791318 346 6 6 2076 12456
142	720996 517 5174 189218 2 35 34 0 0 0 0
141	721513 722 5174 189218 2 35 34 0.023297 0.02625 0.889547 0.023281812709
140	722235 517 5174 189218 2 35 34 6 6 204 1224
161	722752 11444 239 193195 1.11 35.71 347 -1.4856633877515 1.5 9.6269150802793 500.73004115305
160	734196 11607 239 193195 1.11 35.71 347 -1.4555086038397 1.4375176399811 4.2532460453524 342.03112355687
159	745803 7693 239 193195 1.11 35.71 347 36.55 36.55 12682.85 463558.1675
158	753496 11131 239 193195 1.11 35.71 347 36.282188987732 522.49474176138 97091.949740351 34000029.726045
157	764627 11136 239 193195 1.11 35.71 347 12.615115845084 15.825600952068 4876.1550845441 68762.049875558
155	775763 12285 239 193195 1.11 35.71 347 -0.0097156325289589 0.94341347506783 18.633219496898 13.255150718131
154	788048 11131 239 193195 1.11 35.71 347 19.98451596665 21.824584230494 6961.4539923226 139683.4118168
156	799179 6305 239 193195 1.11 35.71 347 7 7 2429 17003
168	805484 14179 832 193226 1.212137841273 35.712130772679 346 0.099999615242 0.100012762793 34.599992692624 3.4599985395217
167	819663 14168 1070 193470 1.262218962049 35.762211877683 346 0.09999961437 0.100012761756 34.599992676852 3.4599985363679
166	833831 9716 832 193226 1.212137841273 35.712130772679 346 7 7 2422 16954
165	843547 9708 1070 193470 1.262218962049 35.762211877683 346 7 7 2422 16954
164	853255 517 5175 189219 2 35 34 0 0 0 0
163	853772 722 5175 189219 2 35 34 0.023297 0.02625 0.889547 0.023281812709
162	854494 517 5175 189219 2 35 34 7 7 238 1666
88	855011 10794 236 193472 1.11 35.77 348 0 20.02225499619 6540.2109649428 127714.97318666
89	865805 11883 236 193472 1.11 35.77 348 -5.7359965054083 0.01189048420194 -204.73244758861 913.9283835094
90	877688 5976 236 193472 1.11 35.77 348 4 4 1392 5568
91	883664 10804 236 193472 1.11 35.77 348 12.615805754352 19.136499464843 5070.1257662121 74816.849082177
92	894468 10804 236 193472 1.11 35.77 348 108.28219184875 612.99374900547 123063.25913629 50589546.54603
93	905272 7368 236 193472 1.11 35.77 348 36.55 36.55 12719.4 464894.07
94	912640 11133 236 193472 1.11 35.77 348 -1.4560433236603 2.5 48.467344474215 453.2446204645
95	923773 11222 236 193472 1.11 35.77 348 -1.4996309245335 5.8667862913662 91.99229855887 977.13367412949
96	934995 483 5172 189216 2 35 34 4 4 136 544
97	935478 688 5172 189216 2 35 34 0.023297 0.02625 0.889547 0.023281812709
98	936166 483 5172 189216 2 35 34 0 0 0 0
99	936649 9368 1052 193452 1.262218721883 35.76221157882 346 4 4 1384 5536
100	946017 9676 1108 192945 1.276580721882 35.676586965701 345 4 4 1380 5520
101	955693 14188 1052 193452 1.262218721883 35.76221157882 346 0.099999612928 0.100012761751 34.599992618155 3.4599985246285
102	969881 14124 1108 192945 1.276580721882 35.676586965701 345 0.099999617599 0.100012763824 34.500006005037 3.4500012021659
