file 1679741 1512142848                                         
version 2
run SinusoidalSpeedInjectionAttack-285-20171201-16:40:17-46767
attr CACCSpacing 20
attr attackAcc -30
attr attackPos 7
attr attackSpeed 150
attr attackStart 30
attr attacker 3
attr beaconInterval 0.1
attr configname SinusoidalSpeedInjectionAttack
attr controller 1
attr datetime 20171201-16:40:17
attr experiment SinusoidalSpeedInjectionAttack
attr fakeAcc "(3 == 4)"
attr fakePos "(3 == 2)"
attr fakeSpeed "(3 == 3)"
attr inifile omnetpp_285.ini
attr iterationvars "$attacker=3, $attackSpeed=150, $attackPos=7, $attackAcc=-30, $leaderSpeed=150, $controller=1, $CACCSpacing=20, $sController=\"CACC\", $attackStart=30, $0=20, $1=0, $nCars=8, $platoonSize=8, $nLanes=1, $beaconInterval=0.1, $priority=2, $packetSize=200, $ploegH=0.5, $leaderHeadway=1.2, $fakeSpeed=(3 == 3), $fakeAcc=(3 == 4), $fakePos=(3 == 2)"
attr iterationvarsf attacker=3,attackSpeed=150,attackPos=7,attackAcc=-30,leaderSpeed=150,controller=1,CACCSpacing=20,sController=CACC,attackStart=30,20,0,nCars=8,platoonSize=8,nLanes=1,beaconInterval=0.1,priority=2,packetSize=200,ploegH=0.5,leaderHeadway=1.2,fakeSpeed=(3_==_3),fakeAcc=(3_==_4),fakePos=(3_==_2)-
attr leaderHeadway 1.2
attr leaderSpeed 150
attr measurement "$attacker=3, $attackSpeed=150, $attackPos=7, $attackAcc=-30, $leaderSpeed=150, $controller=1, $CACCSpacing=20, $sController=\"CACC\", $attackStart=30, $0=20, $1=0, $nCars=8, $platoonSize=8, $nLanes=1, $beaconInterval=0.1, $priority=2, $packetSize=200, $ploegH=0.5, $leaderHeadway=1.2, $fakeSpeed=(3 == 3), $fakeAcc=(3 == 4), $fakePos=(3 == 2)"
attr nCars 8
attr nLanes 1
attr network scenario
attr packetSize 200
attr platoonSize 8
attr ploegH 0.5
attr priority 2
attr processid 46767
attr repetition 0
attr replication #0
attr resultdir results
attr runnumber 285
attr sController "\"CACC\""
attr seedset 0
param **.coreDebug false
param **.debug false
param **.headway 0.1s
param **.numberOfCars 8
param **.numberOfCarsPerPlatoon 8
param **.numberOfLanes 1
param **.numericController 1
param **.traffic.nCars 8
param **.traffic.nLanes 1
param **.traffic.platoonInsertDistance 20m
param **.traffic.platoonInsertHeadway 0s
param **.traffic.platoonInsertSpeed 150kmph
param **.traffic.platoonInsertTime "1 s"
param **.traffic.platoonLeaderHeadway 1.2s
param **.traffic.platoonSize 8
param **.traffic.platooningVType "\"vtypeauto\""
param **.traffic_type "\"PlatoonsTrafficManager\""
param *.**.nic.mac1609_4.bitrate 6Mbps
param *.**.nic.mac1609_4.txPower 100mW
param *.**.nic.mac1609_4.useServiceChannel false
param *.**.nic.phy80211p.analogueModels "xmldoc(\"config.xml\")"
param *.**.nic.phy80211p.decider "xmldoc(\"config.xml\")"
param *.**.nic.phy80211p.maxTXPower 100mW
param *.**.nic.phy80211p.sensitivity -94dBm
param *.**.nic.phy80211p.thermalNoise -95dBm
param *.**.nic.phy80211p.usePropagationDelay true
param *.**.nic.phy80211p.useThermalNoise true
param *.annotations.draw false
param *.connectionManager.alpha 2.0
param *.connectionManager.carrierFrequency "5.890e9 Hz"
param *.connectionManager.pMax 100mW
param *.connectionManager.sat -94dBm
param *.connectionManager.sendDirect true
param *.manager.autoShutdown true
param *.manager.commandLine "\"sumo --remote-port $port --seed $seed --configuration-file $configFile\""
param *.manager.configFile "\"./sumocfg/freeway.sumo.cfg\""
param *.manager.host "\"localhost\""
param *.manager.margin 25
param *.manager.moduleDisplayString "\"\""
param *.manager.moduleName "\"node\""
param *.manager.moduleType "\"Car\""
param *.manager.updateInterval 0.01s
param *.node[*].appl.attackStart 30s
param *.node[*].appl.attackerType 3
param *.node[*].appl.simulationDuration "60 s"
param *.node[*].appl_type "\"SimplePlatooningApp\""
param *.node[*].helper.nCars 8
param *.node[*].helper.nLanes 1
param *.node[*].helper.platoonSize 8
param *.node[*].helper_type "\"PositionHelper\""
param *.node[*].mobility.x 0
param *.node[*].mobility.y 0
param *.node[*].mobility.z 1.895
param *.node[*].prot.attackStart 30s
param *.node[*].prot.attackerType 3
param *.node[*].prot.attackingNode 3
param *.node[*].prot.beaconingInterval 0.1s
param *.node[*].prot.fakeAcc "(3 == 4)"
param *.node[*].prot.fakePos "(3 == 2)"
param *.node[*].prot.fakeSpeed "(3 == 3)"
param *.node[*].prot.maliciousAcc "-30 mpss"
param *.node[*].prot.maliciousSpeed 150kmph
param *.node[*].prot.packetSize 200
param *.node[*].prot.priority 2
param *.node[*].prot.shiftX "7 m"
param *.node[*].prot.useControllerAcceleration true
param *.node[*].protocol_type "\"SimplePlatooningBeaconing\""
param *.node[*].scenario.accHeadway 0.1s
param *.node[*].scenario.caccC1 0.5
param *.node[*].scenario.caccOmegaN "0.2 Hz"
param *.node[*].scenario.caccSpacing 20m
param *.node[*].scenario.caccXi 1
param *.node[*].scenario.controller "\"CACC\""
param *.node[*].scenario.engineTau "0.5 s"
param *.node[*].scenario.leaderHeadway 1.2s
param *.node[*].scenario.leaderSpeed 150kmph
param *.node[*].scenario.ploegH 0.5s
param *.node[*].scenario.ploegKd 0.7
param *.node[*].scenario.ploegKp 0.2
param *.node[*].scenario.useRealisticEngine false
param *.node[*].scenario_type "\"SinusoidalScenario\""
param *.node[*].unicast.packetLossRate 0
param *.obstacles.debug false
param *.playgroundSizeX 65000m
param *.playgroundSizeY 25000m
param *.playgroundSizeZ 50m
param *.world.use2D false
param *.world.useTorus false

vector 0  scenario.node[0].appl  distance  ETV
vector 1  scenario.node[0].appl  relativeSpeed  ETV
vector 2  scenario.node[0].appl  nodeId  ETV
vector 6  scenario.node[0].appl  acceleration  ETV
vector 7  scenario.node[0].appl  controllerAcceleration  ETV
vector 3  scenario.node[0].appl  speed  ETV
vector 4  scenario.node[0].appl  posx  ETV
vector 5  scenario.node[0].appl  posy  ETV
vector 22  scenario.node[1].appl  distance  ETV
vector 23  scenario.node[1].appl  relativeSpeed  ETV
vector 24  scenario.node[1].appl  nodeId  ETV
vector 28  scenario.node[1].appl  acceleration  ETV
vector 29  scenario.node[1].appl  controllerAcceleration  ETV
vector 25  scenario.node[1].appl  speed  ETV
vector 26  scenario.node[1].appl  posx  ETV
vector 27  scenario.node[1].appl  posy  ETV
vector 44  scenario.node[2].appl  distance  ETV
vector 45  scenario.node[2].appl  relativeSpeed  ETV
vector 46  scenario.node[2].appl  nodeId  ETV
vector 50  scenario.node[2].appl  acceleration  ETV
vector 51  scenario.node[2].appl  controllerAcceleration  ETV
vector 47  scenario.node[2].appl  speed  ETV
vector 48  scenario.node[2].appl  posx  ETV
vector 49  scenario.node[2].appl  posy  ETV
vector 66  scenario.node[3].appl  distance  ETV
vector 67  scenario.node[3].appl  relativeSpeed  ETV
vector 68  scenario.node[3].appl  nodeId  ETV
vector 72  scenario.node[3].appl  acceleration  ETV
vector 73  scenario.node[3].appl  controllerAcceleration  ETV
vector 69  scenario.node[3].appl  speed  ETV
vector 70  scenario.node[3].appl  posx  ETV
vector 71  scenario.node[3].appl  posy  ETV
vector 88  scenario.node[4].appl  distance  ETV
vector 89  scenario.node[4].appl  relativeSpeed  ETV
vector 90  scenario.node[4].appl  nodeId  ETV
vector 94  scenario.node[4].appl  acceleration  ETV
vector 95  scenario.node[4].appl  controllerAcceleration  ETV
vector 91  scenario.node[4].appl  speed  ETV
vector 92  scenario.node[4].appl  posx  ETV
vector 93  scenario.node[4].appl  posy  ETV
vector 110  scenario.node[5].appl  distance  ETV
vector 111  scenario.node[5].appl  relativeSpeed  ETV
vector 112  scenario.node[5].appl  nodeId  ETV
vector 116  scenario.node[5].appl  acceleration  ETV
vector 117  scenario.node[5].appl  controllerAcceleration  ETV
vector 113  scenario.node[5].appl  speed  ETV
vector 114  scenario.node[5].appl  posx  ETV
vector 115  scenario.node[5].appl  posy  ETV
vector 132  scenario.node[6].appl  distance  ETV
vector 133  scenario.node[6].appl  relativeSpeed  ETV
vector 134  scenario.node[6].appl  nodeId  ETV
vector 138  scenario.node[6].appl  acceleration  ETV
vector 139  scenario.node[6].appl  controllerAcceleration  ETV
vector 135  scenario.node[6].appl  speed  ETV
vector 136  scenario.node[6].appl  posx  ETV
vector 137  scenario.node[6].appl  posy  ETV
vector 154  scenario.node[7].appl  distance  ETV
vector 155  scenario.node[7].appl  relativeSpeed  ETV
vector 156  scenario.node[7].appl  nodeId  ETV
vector 160  scenario.node[7].appl  acceleration  ETV
vector 161  scenario.node[7].appl  controllerAcceleration  ETV
vector 157  scenario.node[7].appl  speed  ETV
vector 158  scenario.node[7].appl  posx  ETV
vector 159  scenario.node[7].appl  posy  ETV
vector 80  scenario.node[3].prot  frontDelay  ETV
vector 78  scenario.node[3].prot  frontDelayId  ETV
vector 58  scenario.node[2].prot  frontDelay  ETV
vector 56  scenario.node[2].prot  frontDelayId  ETV
vector 168  scenario.node[7].prot  frontDelay  ETV
vector 166  scenario.node[7].prot  frontDelayId  ETV
vector 35  scenario.node[1].prot  leaderDelay  ETV
vector 33  scenario.node[1].prot  leaderDelayId  ETV
vector 36  scenario.node[1].prot  frontDelay  ETV
vector 34  scenario.node[1].prot  frontDelayId  ETV
vector 57  scenario.node[2].prot  leaderDelay  ETV
vector 55  scenario.node[2].prot  leaderDelayId  ETV
vector 79  scenario.node[3].prot  leaderDelay  ETV
vector 77  scenario.node[3].prot  leaderDelayId  ETV
vector 101  scenario.node[4].prot  leaderDelay  ETV
vector 99  scenario.node[4].prot  leaderDelayId  ETV
vector 123  scenario.node[5].prot  leaderDelay  ETV
vector 121  scenario.node[5].prot  leaderDelayId  ETV
vector 145  scenario.node[6].prot  leaderDelay  ETV
vector 143  scenario.node[6].prot  leaderDelayId  ETV
vector 167  scenario.node[7].prot  leaderDelay  ETV
vector 165  scenario.node[7].prot  leaderDelayId  ETV
vector 124  scenario.node[5].prot  frontDelay  ETV
vector 122  scenario.node[5].prot  frontDelayId  ETV
vector 102  scenario.node[4].prot  frontDelay  ETV
vector 100  scenario.node[4].prot  frontDelayId  ETV
vector 146  scenario.node[6].prot  frontDelay  ETV
vector 144  scenario.node[6].prot  frontDelayId  ETV
vector 8  scenario.node[0].prot  nodeId  ETV
vector 9  scenario.node[0].prot  busyTime  ETV
vector 10  scenario.node[0].prot  collisions  ETV
vector 30  scenario.node[1].prot  nodeId  ETV
vector 31  scenario.node[1].prot  busyTime  ETV
vector 32  scenario.node[1].prot  collisions  ETV
vector 52  scenario.node[2].prot  nodeId  ETV
vector 53  scenario.node[2].prot  busyTime  ETV
vector 54  scenario.node[2].prot  collisions  ETV
vector 74  scenario.node[3].prot  nodeId  ETV
vector 75  scenario.node[3].prot  busyTime  ETV
vector 76  scenario.node[3].prot  collisions  ETV
vector 96  scenario.node[4].prot  nodeId  ETV
vector 97  scenario.node[4].prot  busyTime  ETV
vector 98  scenario.node[4].prot  collisions  ETV
vector 118  scenario.node[5].prot  nodeId  ETV
vector 119  scenario.node[5].prot  busyTime  ETV
vector 120  scenario.node[5].prot  collisions  ETV
vector 140  scenario.node[6].prot  nodeId  ETV
vector 141  scenario.node[6].prot  busyTime  ETV
vector 142  scenario.node[6].prot  collisions  ETV
vector 162  scenario.node[7].prot  nodeId  ETV
vector 163  scenario.node[7].prot  busyTime  ETV
vector 164  scenario.node[7].prot  collisions  ETV
7	11097 13862 232 328174 1.11 59.91 589 -1.5 1.5 -14.445978168666 993.24092374633
6	24959 18591 232 328174 1.11 59.91 589 -1.4722746794739 1.4513434175775 -12.507273387293 675.29835233824
5	43550 12081 232 328174 1.11 59.91 589 36.55 36.55 21527.95 786846.5725
4	55631 17890 232 328174 1.11 59.91 589 205.60653190573 2659.9226644926 844718.1175384 1507683942.2848
3	73521 17882 232 328174 1.11 59.91 589 40.376854748618 43.631381416411 24584.394369227 1026576.1694128
1	91403 9725 232 328174 1.11 59.91 589 0 0 0 0
0	101128 10314 232 328174 1.11 59.91 589 -1 -1 -589 589
2	111442 9725 232 328174 1.11 59.91 589 0 0 0 0
10	121167 858 5102 328596 2 60 59 0 0 0 0
9	122025 1154 5102 328596 2 60 59 0.022969 0.02625 1.545469 0.040493199961
8	123179 799 5102 328596 2 60 59 0 0 0 0
29	123978 17355 233 328175 1.11 59.91 589 -1.5112642293354 1.5120701310328 -15.602443650418 992.06669160662
28	141333 19164 233 328175 1.11 59.91 589 -1.4820302899857 1.4492283745575 -12.203163121788 674.69257810579
27	160497 12670 233 328175 1.11 59.91 589 36.55 36.55 21527.95 786846.5725
26	173167 18492 233 328175 1.11 59.91 589 181.60653190613 2635.8964760582 830546.46041333 1467350744.2454
25	191659 18504 233 328175 1.11 59.91 589 40.373848722382 43.630315802076 24584.145588212 1026555.067039
23	210163 20099 233 328175 1.11 59.91 589 -0.073512150303316 0.077026299663878 0.37385374933088 1.7619270254861
22	230262 18511 233 328175 1.11 59.91 589 19.939712146978 20.179296883788 11815.652149452 237030.40789415
24	248773 10314 233 328175 1.11 59.91 589 1 1 589 589
36	259087 23673 1032 328418 1.254913282269 59.954929286737 588 0.099909240509 0.100091272217 58.800029246018 5.8800068843096
35	282760 23673 1032 328418 1.254913282269 59.954929286737 588 0.099909240509 0.100091272217 58.800029246018 5.8800068843096
34	306433 16112 1032 328418 1.254913282269 59.954929286737 588 1 1 588 588
33	322545 16112 1032 328418 1.254913282269 59.954929286737 588 1 1 588 588
32	338657 858 5103 328597 2 60 59 0 0 0 0
31	339515 1213 5103 328597 2 60 59 0.022969 0.02625 1.545469 0.040493199961
30	340728 858 5103 328597 2 60 59 1 1 59 59
51	341586 19046 234 328176 1.11 59.91 589 -1.4951715925185 1.4969403114055 -15.575012009137 971.91297369263
50	360632 19175 234 328176 1.11 59.91 589 -1.4749478864793 1.4483793298595 -11.883496893837 671.91386161479
49	379807 12670 234 328176 1.11 59.91 589 36.55 36.55 21527.95 786846.5725
48	392477 18501 234 328176 1.11 59.91 589 157.60653190613 2611.9723414044 816423.39727346 1427872582.7649
47	410978 18503 234 328176 1.11 59.91 589 40.377550369211 43.627312464075 24584.91464451 1026616.9567095
45	429481 20126 234 328176 1.11 59.91 589 -0.042015735804142 0.03532163465951 -0.64702466715514 0.40721633416607
44	449607 18480 234 328176 1.11 59.91 589 19.918027115643 20.070368531328 11767.078520996 235084.12526389
46	468087 10314 234 328176 1.11 59.91 589 2 2 1178 2356
58	478401 23613 900 328280 1.22965940166 59.929662395279 588 0.099987239994 0.100000273492 58.800003235169 5.8800006488583
57	502014 23657 1038 328424 1.254913362325 59.954929366536 588 0.099909240517 0.10009127223 58.800029245761 5.8800068842582
56	525671 16078 900 328280 1.22965940166 59.929662395279 588 2 2 1176 2352
55	541749 16107 1038 328424 1.254913362325 59.954929366536 588 2 2 1176 2352
54	557856 858 5104 328598 2 60 59 0 0 0 0
53	558714 1213 5104 328598 2 60 59 0.022969 0.02625 1.545469 0.040493199961
52	559927 858 5104 328598 2 60 59 2 2 118 236
73	560785 19043 235 328177 1.11 59.91 589 -1.4890347549137 1.4892809838942 -15.518622413431 946.30555362952
72	579828 19169 235 328177 1.11 59.91 589 -1.4633940862126 1.4358250220944 -11.635854122028 660.08354762775
71	598997 12670 235 328177 1.11 59.91 589 36.55 36.55 21527.95 786846.5725
70	611667 18503 235 328177 1.11 59.91 589 133.60653190613 2587.9900202809 802288.84947091 1389028898.68
69	630170 18485 235 328177 1.11 59.91 589 40.390341218465 43.61714832712 24585.100344732 1026625.001663
67	648655 20358 235 328177 1.11 59.91 589 -0.02257686483572 0.018794911600473 -0.066865253178229 0.075435322017306
66	669013 18461 235 328177 1.11 59.91 589 19.965708972717 20.045084605633 11778.551516559 235542.2516174
68	687474 10314 235 328177 1.11 59.91 589 3 3 1767 5301
80	697788 23650 832 328218 1.213906321605 59.913896315672 588 0.099987241264 0.100000273505 58.799990235617 5.8799980491098
79	721438 23620 1044 328430 1.25491344238 59.954929446529 588 0.099909240518 0.100091272241 58.800029245699 5.8800068842458
78	745058 16114 832 328218 1.213906321605 59.913896315672 588 3 3 1764 5292
77	761172 16070 1044 328430 1.25491344238 59.954929446529 588 3 3 1764 5292
76	777242 858 5105 328599 2 60 59 0 0 0 0
75	778100 1213 5105 328599 2 60 59 0.022968 0.02625 1.545468 0.040493154024
74	779313 858 5105 328599 2 60 59 3 3 177 531
95	780171 18346 236 328178 1.11 59.91 589 -1.8828622911747 1.8771749162499 -14.668185224098 988.65067493695
94	798517 19155 236 328178 1.11 59.91 589 -1.5207783485138 1.5163609640723 -12.692876586058 689.52711654587
93	817672 12670 236 328178 1.11 59.91 589 36.55 36.55 21527.95 786846.5725
92	830342 18500 236 328178 1.11 59.91 589 109.60653190613 2562.0737749379 787958.36536162 1349940825.2171
91	848842 18493 236 328178 1.11 59.91 589 40.225435373872 43.605126635788 24565.898432358 1025044.8250376
89	867335 20046 236 328178 1.11 59.91 589 -0.29714861860653 0.37469332882845 19.318270914899 10.424514176002
88	887381 18471 236 328178 1.11 59.91 589 19.4885087526 21.913853308575 11974.100071034 243677.04965428
90	905852 10314 236 328178 1.11 59.91 589 4 4 2356 9424
102	916166 24270 1246 328641 1.303564162878 60.003554183393 588 0.099987241219 0.100000273549 58.799990262065 5.8799980543995
101	940436 24259 1050 328436 1.254913522436 59.954929532991 588 0.099909240516 0.100091272206 58.800029252105 5.880006885527
100	964695 16719 1246 328641 1.303564162878 60.003554183393 588 4 4 2352 9408
99	981414 16122 1050 328436 1.254913522436 59.954929532991 588 4 4 2352 9408
98	997536 858 5106 328600 2 60 59 0 0 0 0
97	998394 1213 5106 328600 2 60 59 0.022969 0.02625 1.545469 0.040493199961
96	999607 858 5106 328600 2 60 59 4 4 236 944
117	1000465 18972 237 328179 1.11 59.91 589 -1.6590779159863 1.5123098119031 -15.864126148041 981.65200642975
116	1019437 19761 237 328179 1.11 59.91 589 -1.4478111761214 1.4472380720456 -12.531299554496 666.85401923335
115	1039198 13259 237 328179 1.11 59.91 589 36.55 36.55 21527.95 786846.5725
114	1052457 19100 237 328179 1.11 59.91 589 85.606531906128 2538.1819294784 773773.44018842 1312305274.9332
113	1071557 19067 237 328179 1.11 59.91 589 40.29101319452 43.597268524374 24566.987557743 1025120.6034153
111	1090624 20654 237 328179 1.11 59.91 589 -0.15463008197554 0.22628420337278 -0.96219661870798 2.4643557190365
110	1111278 19071 237 328179 1.11 59.91 589 19.864075235997 20.629419438944 11828.946955712 237580.8651013
112	1130349 10903 237 328179 1.11 59.91 589 5 5 2945 14725
124	1141252 24253 1172 328552 1.265750082823 59.965753090141 588 0.099987240401 0.100000273468 58.800003248868 5.8800006515978
123	1165505 24264 1056 328442 1.254913602491 59.954929612683 588 0.09990924051 0.100091272226 58.800029251742 5.8800068854544
122	1189769 16713 1172 328552 1.265750082823 59.965753090141 588 5 5 2940 14700
121	1206482 16713 1056 328442 1.254913602491 59.954929612683 588 5 5 2940 14700
120	1223195 917 5107 328601 2 60 59 0 0 0 0
119	1224112 1272 5107 328601 2 60 59 0.022968 0.02625 1.545468 0.040493154024
118	1225384 917 5107 328601 2 60 59 5 5 295 1475
139	1226301 19625 238 328180 1.11 59.91 589 -1.5659491003087 1.4993843725762 -15.880673702686 951.69112968153
138	1245926 19735 238 328180 1.11 59.91 589 -1.4505591831579 1.450070117486 -12.409714935306 666.24445206308
137	1265661 13259 238 328180 1.11 59.91 589 36.55 36.55 21527.95 786846.5725
136	1278920 19093 238 328180 1.11 59.91 589 61.606531906128 2514.3338254156 759673.46910337 1275651694.0794
135	1298013 19064 238 328180 1.11 59.91 589 40.297934433136 43.602528643902 24568.51068229 1025246.6185106
133	1317077 20821 238 328180 1.11 59.91 589 -0.060418383458149 0.034719192403529 -1.3978115514857 0.22050051228865
132	1337898 19062 238 328180 1.11 59.91 589 19.76873965302 20.040983092447 11744.00154754 234165.94549803
134	1356960 10903 238 328180 1.11 59.91 589 6 6 3534 21204
146	1367863 24250 1312 328701 1.305160322989 60.005163342628 588 0.099987240083 0.100000273539 58.800003261189 5.8800006540622
145	1392113 24250 1062 328448 1.254913682546 59.95492969223 588 0.099909240511 0.100091272241 58.800029251234 5.8800068853528
144	1416363 16716 1312 328701 1.305160322989 60.005163342628 588 6 6 3528 21168
143	1433079 16720 1062 328448 1.254913682546 59.95492969223 588 6 6 3528 21168
142	1449799 917 5108 328602 2 60 59 0 0 0 0
141	1450716 1272 5108 328602 2 60 59 0.022969 0.02625 1.545469 0.040493199961
140	1451988 917 5108 328602 2 60 59 6 6 354 2124
161	1452905 19642 239 328181 1.11 59.91 589 -1.5376215842511 1.5069741901174 -16.082131636475 974.17307909093
160	1472547 19779 239 328181 1.11 59.91 589 -1.4563373298358 1.4483541281649 -12.252878901627 664.18182215363
159	1492326 13259 239 328181 1.11 59.91 589 36.55 36.55 21527.95 786846.5725
158	1505585 19089 239 328181 1.11 59.91 589 37.606529998779 2490.5025540572 745570.27936408 1239664634.9032
157	1524674 19074 239 328181 1.11 59.91 589 40.305468967439 43.60713420096 24570.204157069 1025386.5009218
155	1543748 20976 239 328181 1.11 59.91 589 -0.047481628150706 0.034177788994569 -1.5693776297459 0.17050387979408
154	1564724 19091 239 328181 1.11 59.91 589 19.781325840529 20.044079880008 11747.223608789 234294.35102635
156	1583815 10903 239 328181 1.11 59.91 589 7 7 4123 28861
168	1594718 24243 975 328355 1.254434801937 59.954437800458 588 0.099987240242 0.100000273504 58.800003240071 5.8800006498387
167	1618961 24260 1068 328454 1.254913762602 59.95492977172 588 0.099909240517 0.100091272255 58.800029250668 5.8800068852396
166	1643221 16708 975 328355 1.254434801937 59.954437800458 588 7 7 4116 28812
165	1659929 16706 1068 328454 1.254913762602 59.95492977172 588 7 7 4116 28812
164	1676635 917 5109 328603 2 60 59 0 0 0 0
163	1677552 1272 5109 328603 2 60 59 0.022969 0.02625 1.545469 0.040493199961
162	1678824 917 5109 328603 2 60 59 7 7 413 2891
