file 911687 1512141672                                          
version 2
run SinusoidalSpeedInjectionAttack-62-20171201-16:20:55-96335
attr CACCSpacing 5
attr attackAcc -30
attr attackPos 7
attr attackSpeed 0
attr attackStart 30
attr attacker 3
attr beaconInterval 0.1
attr configname SinusoidalSpeedInjectionAttack
attr controller 1
attr datetime 20171201-16:20:55
attr experiment SinusoidalSpeedInjectionAttack
attr fakeAcc "(3 == 4)"
attr fakePos "(3 == 2)"
attr fakeSpeed "(3 == 3)"
attr inifile omnetpp_62.ini
attr iterationvars "$attacker=3, $attackSpeed=0, $attackPos=7, $attackAcc=-30, $leaderSpeed=50, $controller=1, $CACCSpacing=5, $sController=\"CACC\", $attackStart=30, $0=5, $1=0, $nCars=8, $platoonSize=8, $nLanes=1, $beaconInterval=0.1, $priority=2, $packetSize=200, $ploegH=0.5, $leaderHeadway=1.2, $fakeSpeed=(3 == 3), $fakeAcc=(3 == 4), $fakePos=(3 == 2)"
attr iterationvarsf attacker=3,attackSpeed=0,attackPos=7,attackAcc=-30,leaderSpeed=50,controller=1,CACCSpacing=5,sController=CACC,attackStart=30,5,0,nCars=8,platoonSize=8,nLanes=1,beaconInterval=0.1,priority=2,packetSize=200,ploegH=0.5,leaderHeadway=1.2,fakeSpeed=(3_==_3),fakeAcc=(3_==_4),fakePos=(3_==_2)-
attr leaderHeadway 1.2
attr leaderSpeed 50
attr measurement "$attacker=3, $attackSpeed=0, $attackPos=7, $attackAcc=-30, $leaderSpeed=50, $controller=1, $CACCSpacing=5, $sController=\"CACC\", $attackStart=30, $0=5, $1=0, $nCars=8, $platoonSize=8, $nLanes=1, $beaconInterval=0.1, $priority=2, $packetSize=200, $ploegH=0.5, $leaderHeadway=1.2, $fakeSpeed=(3 == 3), $fakeAcc=(3 == 4), $fakePos=(3 == 2)"
attr nCars 8
attr nLanes 1
attr network scenario
attr packetSize 200
attr platoonSize 8
attr ploegH 0.5
attr priority 2
attr processid 96335
attr repetition 2
attr replication #2
attr resultdir results
attr runnumber 62
attr sController "\"CACC\""
attr seedset 2
param **.coreDebug false
param **.debug false
param **.headway 0.1s
param **.numberOfCars 8
param **.numberOfCarsPerPlatoon 8
param **.numberOfLanes 1
param **.numericController 1
param **.traffic.nCars 8
param **.traffic.nLanes 1
param **.traffic.platoonInsertDistance 5m
param **.traffic.platoonInsertHeadway 0s
param **.traffic.platoonInsertSpeed 50kmph
param **.traffic.platoonInsertTime "1 s"
param **.traffic.platoonLeaderHeadway 1.2s
param **.traffic.platoonSize 8
param **.traffic.platooningVType "\"vtypeauto\""
param **.traffic_type "\"PlatoonsTrafficManager\""
param *.**.nic.mac1609_4.bitrate 6Mbps
param *.**.nic.mac1609_4.txPower 100mW
param *.**.nic.mac1609_4.useServiceChannel false
param *.**.nic.phy80211p.analogueModels "xmldoc(\"config.xml\")"
param *.**.nic.phy80211p.decider "xmldoc(\"config.xml\")"
param *.**.nic.phy80211p.maxTXPower 100mW
param *.**.nic.phy80211p.sensitivity -94dBm
param *.**.nic.phy80211p.thermalNoise -95dBm
param *.**.nic.phy80211p.usePropagationDelay true
param *.**.nic.phy80211p.useThermalNoise true
param *.annotations.draw false
param *.connectionManager.alpha 2.0
param *.connectionManager.carrierFrequency "5.890e9 Hz"
param *.connectionManager.pMax 100mW
param *.connectionManager.sat -94dBm
param *.connectionManager.sendDirect true
param *.manager.autoShutdown true
param *.manager.commandLine "\"sumo --remote-port $port --seed $seed --configuration-file $configFile\""
param *.manager.configFile "\"./sumocfg/freeway.sumo.cfg\""
param *.manager.host "\"localhost\""
param *.manager.margin 25
param *.manager.moduleDisplayString "\"\""
param *.manager.moduleName "\"node\""
param *.manager.moduleType "\"Car\""
param *.manager.updateInterval 0.01s
param *.node[*].appl.attackStart 30s
param *.node[*].appl.attackerType 3
param *.node[*].appl.simulationDuration "60 s"
param *.node[*].appl_type "\"SimplePlatooningApp\""
param *.node[*].helper.nCars 8
param *.node[*].helper.nLanes 1
param *.node[*].helper.platoonSize 8
param *.node[*].helper_type "\"PositionHelper\""
param *.node[*].mobility.x 0
param *.node[*].mobility.y 0
param *.node[*].mobility.z 1.895
param *.node[*].prot.attackStart 30s
param *.node[*].prot.attackerType 3
param *.node[*].prot.attackingNode 3
param *.node[*].prot.beaconingInterval 0.1s
param *.node[*].prot.fakeAcc "(3 == 4)"
param *.node[*].prot.fakePos "(3 == 2)"
param *.node[*].prot.fakeSpeed "(3 == 3)"
param *.node[*].prot.maliciousAcc "-30 mpss"
param *.node[*].prot.maliciousSpeed 0kmph
param *.node[*].prot.packetSize 200
param *.node[*].prot.priority 2
param *.node[*].prot.shiftX "7 m"
param *.node[*].prot.useControllerAcceleration true
param *.node[*].protocol_type "\"SimplePlatooningBeaconing\""
param *.node[*].scenario.accHeadway 0.1s
param *.node[*].scenario.caccC1 0.5
param *.node[*].scenario.caccOmegaN "0.2 Hz"
param *.node[*].scenario.caccSpacing 5m
param *.node[*].scenario.caccXi 1
param *.node[*].scenario.controller "\"CACC\""
param *.node[*].scenario.engineTau "0.5 s"
param *.node[*].scenario.leaderHeadway 1.2s
param *.node[*].scenario.leaderSpeed 50kmph
param *.node[*].scenario.ploegH 0.5s
param *.node[*].scenario.ploegKd 0.7
param *.node[*].scenario.ploegKp 0.2
param *.node[*].scenario.useRealisticEngine false
param *.node[*].scenario_type "\"SinusoidalScenario\""
param *.node[*].unicast.packetLossRate 0
param *.obstacles.debug false
param *.playgroundSizeX 65000m
param *.playgroundSizeY 25000m
param *.playgroundSizeZ 50m
param *.world.use2D false
param *.world.useTorus false

vector 0  scenario.node[0].appl  distance  ETV
vector 1  scenario.node[0].appl  relativeSpeed  ETV
vector 2  scenario.node[0].appl  nodeId  ETV
vector 6  scenario.node[0].appl  acceleration  ETV
vector 7  scenario.node[0].appl  controllerAcceleration  ETV
vector 3  scenario.node[0].appl  speed  ETV
vector 4  scenario.node[0].appl  posx  ETV
vector 5  scenario.node[0].appl  posy  ETV
vector 22  scenario.node[1].appl  distance  ETV
vector 23  scenario.node[1].appl  relativeSpeed  ETV
vector 24  scenario.node[1].appl  nodeId  ETV
vector 28  scenario.node[1].appl  acceleration  ETV
vector 29  scenario.node[1].appl  controllerAcceleration  ETV
vector 25  scenario.node[1].appl  speed  ETV
vector 26  scenario.node[1].appl  posx  ETV
vector 27  scenario.node[1].appl  posy  ETV
vector 44  scenario.node[2].appl  distance  ETV
vector 45  scenario.node[2].appl  relativeSpeed  ETV
vector 46  scenario.node[2].appl  nodeId  ETV
vector 50  scenario.node[2].appl  acceleration  ETV
vector 51  scenario.node[2].appl  controllerAcceleration  ETV
vector 47  scenario.node[2].appl  speed  ETV
vector 48  scenario.node[2].appl  posx  ETV
vector 49  scenario.node[2].appl  posy  ETV
vector 66  scenario.node[3].appl  distance  ETV
vector 67  scenario.node[3].appl  relativeSpeed  ETV
vector 68  scenario.node[3].appl  nodeId  ETV
vector 72  scenario.node[3].appl  acceleration  ETV
vector 73  scenario.node[3].appl  controllerAcceleration  ETV
vector 69  scenario.node[3].appl  speed  ETV
vector 70  scenario.node[3].appl  posx  ETV
vector 71  scenario.node[3].appl  posy  ETV
vector 88  scenario.node[4].appl  distance  ETV
vector 89  scenario.node[4].appl  relativeSpeed  ETV
vector 90  scenario.node[4].appl  nodeId  ETV
vector 94  scenario.node[4].appl  acceleration  ETV
vector 95  scenario.node[4].appl  controllerAcceleration  ETV
vector 91  scenario.node[4].appl  speed  ETV
vector 92  scenario.node[4].appl  posx  ETV
vector 93  scenario.node[4].appl  posy  ETV
vector 110  scenario.node[5].appl  distance  ETV
vector 111  scenario.node[5].appl  relativeSpeed  ETV
vector 112  scenario.node[5].appl  nodeId  ETV
vector 116  scenario.node[5].appl  acceleration  ETV
vector 117  scenario.node[5].appl  controllerAcceleration  ETV
vector 113  scenario.node[5].appl  speed  ETV
vector 114  scenario.node[5].appl  posx  ETV
vector 115  scenario.node[5].appl  posy  ETV
vector 132  scenario.node[6].appl  distance  ETV
vector 133  scenario.node[6].appl  relativeSpeed  ETV
vector 134  scenario.node[6].appl  nodeId  ETV
vector 138  scenario.node[6].appl  acceleration  ETV
vector 139  scenario.node[6].appl  controllerAcceleration  ETV
vector 135  scenario.node[6].appl  speed  ETV
vector 136  scenario.node[6].appl  posx  ETV
vector 137  scenario.node[6].appl  posy  ETV
vector 154  scenario.node[7].appl  distance  ETV
vector 155  scenario.node[7].appl  relativeSpeed  ETV
vector 156  scenario.node[7].appl  nodeId  ETV
vector 160  scenario.node[7].appl  acceleration  ETV
vector 161  scenario.node[7].appl  controllerAcceleration  ETV
vector 157  scenario.node[7].appl  speed  ETV
vector 158  scenario.node[7].appl  posx  ETV
vector 159  scenario.node[7].appl  posy  ETV
vector 168  scenario.node[7].prot  frontDelay  ETV
vector 166  scenario.node[7].prot  frontDelayId  ETV
vector 146  scenario.node[6].prot  frontDelay  ETV
vector 144  scenario.node[6].prot  frontDelayId  ETV
vector 35  scenario.node[1].prot  leaderDelay  ETV
vector 33  scenario.node[1].prot  leaderDelayId  ETV
vector 36  scenario.node[1].prot  frontDelay  ETV
vector 34  scenario.node[1].prot  frontDelayId  ETV
vector 57  scenario.node[2].prot  leaderDelay  ETV
vector 55  scenario.node[2].prot  leaderDelayId  ETV
vector 79  scenario.node[3].prot  leaderDelay  ETV
vector 77  scenario.node[3].prot  leaderDelayId  ETV
vector 101  scenario.node[4].prot  leaderDelay  ETV
vector 99  scenario.node[4].prot  leaderDelayId  ETV
vector 123  scenario.node[5].prot  leaderDelay  ETV
vector 121  scenario.node[5].prot  leaderDelayId  ETV
vector 145  scenario.node[6].prot  leaderDelay  ETV
vector 143  scenario.node[6].prot  leaderDelayId  ETV
vector 167  scenario.node[7].prot  leaderDelay  ETV
vector 165  scenario.node[7].prot  leaderDelayId  ETV
vector 102  scenario.node[4].prot  frontDelay  ETV
vector 100  scenario.node[4].prot  frontDelayId  ETV
vector 80  scenario.node[3].prot  frontDelay  ETV
vector 78  scenario.node[3].prot  frontDelayId  ETV
vector 124  scenario.node[5].prot  frontDelay  ETV
vector 122  scenario.node[5].prot  frontDelayId  ETV
vector 58  scenario.node[2].prot  frontDelay  ETV
vector 56  scenario.node[2].prot  frontDelayId  ETV
vector 8  scenario.node[0].prot  nodeId  ETV
vector 9  scenario.node[0].prot  busyTime  ETV
vector 10  scenario.node[0].prot  collisions  ETV
vector 30  scenario.node[1].prot  nodeId  ETV
vector 31  scenario.node[1].prot  busyTime  ETV
vector 32  scenario.node[1].prot  collisions  ETV
vector 52  scenario.node[2].prot  nodeId  ETV
vector 53  scenario.node[2].prot  busyTime  ETV
vector 54  scenario.node[2].prot  collisions  ETV
vector 74  scenario.node[3].prot  nodeId  ETV
vector 75  scenario.node[3].prot  busyTime  ETV
vector 76  scenario.node[3].prot  collisions  ETV
vector 96  scenario.node[4].prot  nodeId  ETV
vector 97  scenario.node[4].prot  busyTime  ETV
vector 98  scenario.node[4].prot  collisions  ETV
vector 118  scenario.node[5].prot  nodeId  ETV
vector 119  scenario.node[5].prot  busyTime  ETV
vector 120  scenario.node[5].prot  collisions  ETV
vector 140  scenario.node[6].prot  nodeId  ETV
vector 141  scenario.node[6].prot  busyTime  ETV
vector 142  scenario.node[6].prot  collisions  ETV
vector 162  scenario.node[7].prot  nodeId  ETV
vector 163  scenario.node[7].prot  busyTime  ETV
vector 164  scenario.node[7].prot  collisions  ETV
7	11069 7657 232 178690 1.11 33.11 321 -1.5 1.5 4.7460228212196 507.30984018651
6	18726 10063 232 178690 1.11 33.11 321 -1.472274679513 1.4513407705126 9.8557024478565 337.70395665311
5	28789 6453 232 178690 1.11 33.11 321 36.55 36.55 11732.55 428824.7025
4	35242 9623 232 178690 1.11 33.11 321 99.282191848622 548.25530163102 104208.42413223 39237701.53366
3	44865 9627 232 178690 1.11 33.11 321 12.59914837223 15.853603639796 4503.9720879146 63433.843251313
1	54492 5169 232 178690 1.11 33.11 321 0 0 0 0
0	59661 5490 232 178690 1.11 33.11 321 -1 -1 -321 321
2	65151 5169 232 178690 1.11 33.11 321 0 0 0 0
10	70320 453 5168 178056 2 33 32 0 0 0 0
9	70773 614 5168 178056 2 33 32 0.023297 0.02625 0.837047 0.021903687709
8	71387 421 5168 178056 2 33 32 0 0 0 0
29	71808 10319 233 178691 1.11 33.11 321 -1.5233934313509 1.5241491847198 5.9307360551954 512.95921897654
28	82127 10367 233 178691 1.11 33.11 321 -1.4872877336979 1.4632119881083 10.576340616683 340.85606157151
27	92494 6774 233 178691 1.11 33.11 321 36.55 36.55 11732.55 428824.7025
26	99268 9957 233 178691 1.11 33.11 321 90.282188034058 539.18443426202 101316.34859287 37386380.959533
25	109225 9954 233 178691 1.11 33.11 321 12.591606561291 15.859016328899 4503.2884781275 63417.177144842
23	119179 10864 233 178691 1.11 33.11 321 -0.085370881351961 0.0854927136455 0.58505276258113 1.2252081691777
22	130043 9959 233 178691 1.11 33.11 321 4.9094714808437 5.1291570099126 1608.0618671611 8056.7972293451
24	140002 5490 233 178691 1.11 33.11 321 1 1 321 321
36	145492 12766 1034 178936 1.262216930646 33.162219518731 320 0.099998659109 0.100011732137 32.000001248543 3.200000254711
35	158258 12766 1034 178936 1.262216930646 33.162219518731 320 0.099998659109 0.100011732137 32.000001248543 3.200000254711
34	171024 8639 1034 178936 1.262216930646 33.162219518731 320 1 1 320 320
33	179663 8639 1034 178936 1.262216930646 33.162219518731 320 1 1 320 320
32	188302 453 5169 178057 2 33 32 0 0 0 0
31	188755 646 5169 178057 2 33 32 0.023296 0.02625 0.837046 0.021903641116
30	189401 453 5169 178057 2 33 32 1 1 32 32
51	189854 10302 234 178692 1.11 33.11 321 -1.4963007063708 1.4967154524215 6.4366540260518 491.90743904543
50	200156 10357 234 178692 1.11 33.11 321 -1.4778825499601 1.4526090796357 10.700886198855 337.46392504022
49	210513 6774 234 178692 1.11 33.11 321 36.55 36.55 11732.55 428824.7025
48	217287 9950 234 178692 1.11 33.11 321 81.282188034058 530.16117278749 98425.978431619 35588091.67497
47	227237 9946 234 178692 1.11 33.11 321 12.597840099633 15.853308341145 4503.0596776028 63408.230630914
45	237183 10932 234 178692 1.11 33.11 321 -0.019406092240807 0.017598487203578 0.12303711857231 0.034746127239362
44	248115 9940 234 178692 1.11 33.11 321 4.9758459113438 5.0458892887129 1606.3655852411 8038.7610685636
46	258055 5490 234 178692 1.11 33.11 321 2 2 642 1284
58	263545 12735 1312 178652 1.302609200833 33.102600116383 319 0.099998659095 0.100011706668 31.900002576008 3.1900005202011
57	276280 12758 1040 178942 1.262216960667 33.162219548827 320 0.099998659109 0.100011732136 32.000001248618 3.200000254726
56	289038 8616 1312 178652 1.302609200833 33.102600116383 319 2 2 638 1276
55	297654 8636 1040 178942 1.262216960667 33.162219548827 320 2 2 640 1280
54	306290 453 5170 178058 2 33 32 0 0 0 0
53	306743 646 5170 178058 2 33 32 0.023297 0.02625 0.837047 0.021903687709
52	307389 453 5170 178058 2 33 32 2 2 64 128
73	307842 10324 235 178693 1.11 33.11 321 -1.5144504184155 1.5154441727111 6.2410047004929 502.78352164838
72	318166 10383 235 178693 1.11 33.11 321 -1.4663369027497 1.4406243145913 10.718369063722 331.43152437326
71	328549 6774 235 178693 1.11 33.11 321 36.55 36.55 11732.55 428824.7025
70	335323 9951 235 178693 1.11 33.11 321 72.282188034058 521.1434435335 95535.652267541 33841944.532565
69	345274 9953 235 178693 1.11 33.11 321 12.609451331645 15.840833680872 4502.8830911351 63399.308787424
67	355227 11006 235 178693 1.11 33.11 321 -0.015760221391654 0.014948752827303 0.06957760570463 0.019757634996144
66	366233 9937 235 178693 1.11 33.11 321 4.9816113850634 5.0406527671715 1606.3226323482 8038.2972072448
68	376170 5490 235 178693 1.11 33.11 321 3 3 963 2889
80	381660 12730 1176 178515 1.287873050729 33.087876895939 319 0.099998659098 0.100011707381 31.900002505668 3.1900005061333
79	394390 12782 1046 178948 1.262216990687 33.162219578907 320 0.099998659105 0.100011732137 32.000001248678 3.200000254738
78	407172 8616 1176 178515 1.287873050729 33.087876895939 319 3 3 957 2871
77	415788 8645 1046 178948 1.262216990687 33.162219578907 320 3 3 960 2880
76	424433 453 5171 178059 2 33 32 0 0 0 0
75	424886 646 5171 178059 2 33 32 0.023297 0.02625 0.837047 0.021903687709
74	425532 453 5171 178059 2 33 32 3 3 96 288
95	425985 10339 236 178694 1.11 33.11 321 -3.0877473557071 1.50323571472 -75.557010890008 568.2228653833
94	436324 10392 236 178694 1.11 33.11 321 -2.5164058758857 1.4309616958805 -61.598129805143 378.9659303593
93	446716 6774 236 178694 1.11 33.11 321 36.55 36.55 11732.55 428824.7025
92	453490 9954 236 178694 1.11 33.11 321 63.282188034058 501.45331563543 92538.456825607 32041170.869557
91	463444 9950 236 178694 1.11 33.11 321 7.8454544987841 15.82807324239 4393.4647618059 60762.622024885
89	473394 10908 236 178694 1.11 33.11 321 -0.013273960947503 7.1601885354982 109.31114563856 552.51503153325
88	484302 9942 236 178694 1.11 33.11 321 4.9908448776006 15.547081479509 1711.0070753471 9775.9510355957
90	494244 5490 236 178694 1.11 33.11 321 4 4 1284 5136
102	499734 13075 1108 179016 1.276579020708 33.176581646034 320 0.099998659103 0.100011709294 32.000001285784 3.2000002621581
101	512809 13070 1052 178954 1.262217020708 33.162219645791 320 0.099998659103 0.100011734411 32.000001285541 3.2000002621106
100	525879 8955 1108 179016 1.276579020708 33.176581646034 320 4 4 1280 5120
99	534834 8631 1052 178954 1.262217020708 33.162219645791 320 4 4 1280 5120
98	543465 453 5172 178060 2 33 32 0 0 0 0
97	543918 646 5172 178060 2 33 32 0.023297 0.02625 0.837047 0.021903687709
96	544564 453 5172 178060 2 33 32 4 4 128 512
139	545017 10664 238 178696 1.11 33.11 321 -2.5320430767982 1.4958357734991 -23.89418222694 480.6156083259
138	555681 10737 238 178696 1.11 33.11 321 -1.8120728589205 1.435706518075 -14.577846768553 312.16583367957
137	566418 7095 238 178696 1.11 33.11 321 36.55 36.55 11732.55 428824.7025
136	573513 10267 238 178696 1.11 33.11 321 45.282189941406 490.97373303941 86835.872191415 28887166.542581
135	583780 10265 238 178696 1.11 33.11 321 12.515933099973 15.832768134983 4470.3085242453 62497.67847427
133	594045 11386 238 178696 1.11 33.11 321 -1.7788882465591 0.011156232263874 -27.408737290683 34.544146274675
132	605431 10253 238 178696 1.11 33.11 321 2.3257140637112 5.0279108962781 1579.2444768785 7812.312833837
134	615684 5811 238 178696 1.11 33.11 321 6 6 1926 11556
146	621495 13090 970 178872 1.247594780542 33.14759733877 320 0.099998659092 0.100011715088 32.000001218686 3.2000002487389
145	634585 13080 1064 178966 1.26221708075 33.162219679963 320 0.099998659106 0.100011732901 32.000001259671 3.2000002569366
144	647665 8955 970 178872 1.247594780542 33.14759733877 320 6 6 1920 11520
143	656620 8963 1064 178966 1.26221708075 33.162219679963 320 6 6 1920 11520
142	665583 485 5174 178062 2 33 32 0 0 0 0
141	666068 678 5174 178062 2 33 32 0.023297 0.02625 0.837047 0.021903687709
140	666746 485 5174 178062 2 33 32 6 6 192 1152
161	667231 10651 239 178697 1.11 33.11 321 -2.212863299477 1.4867112381599 -10.812513653609 468.76663506824
160	677882 10715 239 178697 1.11 33.11 321 -1.46390587652 1.4301187310423 -3.6367670159128 312.97503564914
159	688597 7095 239 178697 1.11 33.11 321 36.55 36.55 11732.55 428824.7025
158	695692 10277 239 178697 1.11 33.11 321 36.282188987732 483.4679799507 83960.215179467 27363307.419563
157	705969 10265 239 178697 1.11 33.11 321 12.619729346326 15.826655963809 4485.6304872558 62905.464034437
155	716234 11395 239 178697 1.11 33.11 321 -1.0574977343913 0.0095544653850421 -15.176184542756 11.094981294873
154	727629 10279 239 178697 1.11 33.11 321 3.5272654579671 5.0149087737301 1591.9634512076 7907.5846341968
156	737908 5811 239 178697 1.11 33.11 321 7 7 2247 15729
168	743719 13092 832 178734 1.212136690479 33.112126272051 320 0.09999865909 0.100011698265 31.99998824203 3.1999976532728
167	756811 13092 1070 178972 1.26221711077 33.162219704818 320 0.099998659102 0.100011732565 32.000001254506 3.2000002559036
166	769903 8967 832 178734 1.212136690479 33.112126272051 320 7 7 2240 15680
165	778870 8961 1070 178972 1.26221711077 33.162219704818 320 7 7 2240 15680
164	787831 485 5175 178063 2 33 32 0 0 0 0
163	788316 678 5175 178063 2 33 32 0.023297 0.02625 0.837047 0.021903687709
162	788994 485 5175 178063 2 33 32 7 7 224 1568
110	789479 10297 237 179042 1.11 33.18 322 0 5.0245319133086 1556.8770325628 7692.9996109242
111	799776 11163 237 179042 1.11 33.18 322 -2.8653834903744 0.032962821951449 -51.357122414745 113.32539333841
112	810939 5830 237 179042 1.11 33.18 322 5 5 1610 8050
113	816769 10305 237 179042 1.11 33.18 322 10.556720767489 15.829321964362 4453.1292027958 61922.472724315
114	827074 10297 237 179042 1.11 33.18 322 54.282189941406 498.00558315677 90196.567530606 30697851.124768
115	837371 7118 237 179042 1.11 33.18 322 36.55 36.55 11769.1 430160.605
116	844489 10760 237 179042 1.11 33.18 322 -2.2930989074702 1.4330842518406 -35.023591540739 326.65119831862
117	855249 10730 237 179042 1.11 33.18 322 -2.8866239601092 1.5107019186244 -48.294276240312 513.34279315198
118	865979 485 5173 178061 2 33 32 5 5 160 800
119	866464 678 5173 178061 2 33 32 0.023297 0.02625 0.837047 0.021903687709
120	867142 485 5173 178061 2 33 32 0 0 0 0
121	867627 8966 1058 178960 1.262217050729 33.162219659286 320 5 5 1600 8000
122	876593 8943 1244 178583 1.297503110771 33.09750697507 319 5 5 1595 7975
123	885536 13099 1058 178960 1.262217050729 33.162219659286 320 0.099998659103 0.100011733475 32.000001269015 3.2000002588054
124	898635 13052 1244 178583 1.297503110771 33.09750697507 319 0.0999986591 0.100011713148 31.900002524757 3.1900005099513
