file 899506 1512142277                                          
version 2
run SinusoidalSpeedInjectionAttack-182-20171201-16:31:01-117438
attr CACCSpacing 5
attr attackAcc -30
attr attackPos 7
attr attackSpeed 100
attr attackStart 30
attr attacker 3
attr beaconInterval 0.1
attr configname SinusoidalSpeedInjectionAttack
attr controller 1
attr datetime 20171201-16:31:01
attr experiment SinusoidalSpeedInjectionAttack
attr fakeAcc "(3 == 4)"
attr fakePos "(3 == 2)"
attr fakeSpeed "(3 == 3)"
attr inifile omnetpp_182.ini
attr iterationvars "$attacker=3, $attackSpeed=100, $attackPos=7, $attackAcc=-30, $leaderSpeed=50, $controller=1, $CACCSpacing=5, $sController=\"CACC\", $attackStart=30, $0=5, $1=0, $nCars=8, $platoonSize=8, $nLanes=1, $beaconInterval=0.1, $priority=2, $packetSize=200, $ploegH=0.5, $leaderHeadway=1.2, $fakeSpeed=(3 == 3), $fakeAcc=(3 == 4), $fakePos=(3 == 2)"
attr iterationvarsf attacker=3,attackSpeed=100,attackPos=7,attackAcc=-30,leaderSpeed=50,controller=1,CACCSpacing=5,sController=CACC,attackStart=30,5,0,nCars=8,platoonSize=8,nLanes=1,beaconInterval=0.1,priority=2,packetSize=200,ploegH=0.5,leaderHeadway=1.2,fakeSpeed=(3_==_3),fakeAcc=(3_==_4),fakePos=(3_==_2)-
attr leaderHeadway 1.2
attr leaderSpeed 50
attr measurement "$attacker=3, $attackSpeed=100, $attackPos=7, $attackAcc=-30, $leaderSpeed=50, $controller=1, $CACCSpacing=5, $sController=\"CACC\", $attackStart=30, $0=5, $1=0, $nCars=8, $platoonSize=8, $nLanes=1, $beaconInterval=0.1, $priority=2, $packetSize=200, $ploegH=0.5, $leaderHeadway=1.2, $fakeSpeed=(3 == 3), $fakeAcc=(3 == 4), $fakePos=(3 == 2)"
attr nCars 8
attr nLanes 1
attr network scenario
attr packetSize 200
attr platoonSize 8
attr ploegH 0.5
attr priority 2
attr processid 117438
attr repetition 2
attr replication #2
attr resultdir results
attr runnumber 182
attr sController "\"CACC\""
attr seedset 2
param **.coreDebug false
param **.debug false
param **.headway 0.1s
param **.numberOfCars 8
param **.numberOfCarsPerPlatoon 8
param **.numberOfLanes 1
param **.numericController 1
param **.traffic.nCars 8
param **.traffic.nLanes 1
param **.traffic.platoonInsertDistance 5m
param **.traffic.platoonInsertHeadway 0s
param **.traffic.platoonInsertSpeed 50kmph
param **.traffic.platoonInsertTime "1 s"
param **.traffic.platoonLeaderHeadway 1.2s
param **.traffic.platoonSize 8
param **.traffic.platooningVType "\"vtypeauto\""
param **.traffic_type "\"PlatoonsTrafficManager\""
param *.**.nic.mac1609_4.bitrate 6Mbps
param *.**.nic.mac1609_4.txPower 100mW
param *.**.nic.mac1609_4.useServiceChannel false
param *.**.nic.phy80211p.analogueModels "xmldoc(\"config.xml\")"
param *.**.nic.phy80211p.decider "xmldoc(\"config.xml\")"
param *.**.nic.phy80211p.maxTXPower 100mW
param *.**.nic.phy80211p.sensitivity -94dBm
param *.**.nic.phy80211p.thermalNoise -95dBm
param *.**.nic.phy80211p.usePropagationDelay true
param *.**.nic.phy80211p.useThermalNoise true
param *.annotations.draw false
param *.connectionManager.alpha 2.0
param *.connectionManager.carrierFrequency "5.890e9 Hz"
param *.connectionManager.pMax 100mW
param *.connectionManager.sat -94dBm
param *.connectionManager.sendDirect true
param *.manager.autoShutdown true
param *.manager.commandLine "\"sumo --remote-port $port --seed $seed --configuration-file $configFile\""
param *.manager.configFile "\"./sumocfg/freeway.sumo.cfg\""
param *.manager.host "\"localhost\""
param *.manager.margin 25
param *.manager.moduleDisplayString "\"\""
param *.manager.moduleName "\"node\""
param *.manager.moduleType "\"Car\""
param *.manager.updateInterval 0.01s
param *.node[*].appl.attackStart 30s
param *.node[*].appl.attackerType 3
param *.node[*].appl.simulationDuration "60 s"
param *.node[*].appl_type "\"SimplePlatooningApp\""
param *.node[*].helper.nCars 8
param *.node[*].helper.nLanes 1
param *.node[*].helper.platoonSize 8
param *.node[*].helper_type "\"PositionHelper\""
param *.node[*].mobility.x 0
param *.node[*].mobility.y 0
param *.node[*].mobility.z 1.895
param *.node[*].prot.attackStart 30s
param *.node[*].prot.attackerType 3
param *.node[*].prot.attackingNode 3
param *.node[*].prot.beaconingInterval 0.1s
param *.node[*].prot.fakeAcc "(3 == 4)"
param *.node[*].prot.fakePos "(3 == 2)"
param *.node[*].prot.fakeSpeed "(3 == 3)"
param *.node[*].prot.maliciousAcc "-30 mpss"
param *.node[*].prot.maliciousSpeed 100kmph
param *.node[*].prot.packetSize 200
param *.node[*].prot.priority 2
param *.node[*].prot.shiftX "7 m"
param *.node[*].prot.useControllerAcceleration true
param *.node[*].protocol_type "\"SimplePlatooningBeaconing\""
param *.node[*].scenario.accHeadway 0.1s
param *.node[*].scenario.caccC1 0.5
param *.node[*].scenario.caccOmegaN "0.2 Hz"
param *.node[*].scenario.caccSpacing 5m
param *.node[*].scenario.caccXi 1
param *.node[*].scenario.controller "\"CACC\""
param *.node[*].scenario.engineTau "0.5 s"
param *.node[*].scenario.leaderHeadway 1.2s
param *.node[*].scenario.leaderSpeed 50kmph
param *.node[*].scenario.ploegH 0.5s
param *.node[*].scenario.ploegKd 0.7
param *.node[*].scenario.ploegKp 0.2
param *.node[*].scenario.useRealisticEngine false
param *.node[*].scenario_type "\"SinusoidalScenario\""
param *.node[*].unicast.packetLossRate 0
param *.obstacles.debug false
param *.playgroundSizeX 65000m
param *.playgroundSizeY 25000m
param *.playgroundSizeZ 50m
param *.world.use2D false
param *.world.useTorus false

vector 0  scenario.node[0].appl  distance  ETV
vector 1  scenario.node[0].appl  relativeSpeed  ETV
vector 2  scenario.node[0].appl  nodeId  ETV
vector 6  scenario.node[0].appl  acceleration  ETV
vector 7  scenario.node[0].appl  controllerAcceleration  ETV
vector 3  scenario.node[0].appl  speed  ETV
vector 4  scenario.node[0].appl  posx  ETV
vector 5  scenario.node[0].appl  posy  ETV
vector 22  scenario.node[1].appl  distance  ETV
vector 23  scenario.node[1].appl  relativeSpeed  ETV
vector 24  scenario.node[1].appl  nodeId  ETV
vector 28  scenario.node[1].appl  acceleration  ETV
vector 29  scenario.node[1].appl  controllerAcceleration  ETV
vector 25  scenario.node[1].appl  speed  ETV
vector 26  scenario.node[1].appl  posx  ETV
vector 27  scenario.node[1].appl  posy  ETV
vector 44  scenario.node[2].appl  distance  ETV
vector 45  scenario.node[2].appl  relativeSpeed  ETV
vector 46  scenario.node[2].appl  nodeId  ETV
vector 50  scenario.node[2].appl  acceleration  ETV
vector 51  scenario.node[2].appl  controllerAcceleration  ETV
vector 47  scenario.node[2].appl  speed  ETV
vector 48  scenario.node[2].appl  posx  ETV
vector 49  scenario.node[2].appl  posy  ETV
vector 66  scenario.node[3].appl  distance  ETV
vector 67  scenario.node[3].appl  relativeSpeed  ETV
vector 68  scenario.node[3].appl  nodeId  ETV
vector 72  scenario.node[3].appl  acceleration  ETV
vector 73  scenario.node[3].appl  controllerAcceleration  ETV
vector 69  scenario.node[3].appl  speed  ETV
vector 70  scenario.node[3].appl  posx  ETV
vector 71  scenario.node[3].appl  posy  ETV
vector 88  scenario.node[4].appl  distance  ETV
vector 89  scenario.node[4].appl  relativeSpeed  ETV
vector 90  scenario.node[4].appl  nodeId  ETV
vector 94  scenario.node[4].appl  acceleration  ETV
vector 95  scenario.node[4].appl  controllerAcceleration  ETV
vector 91  scenario.node[4].appl  speed  ETV
vector 92  scenario.node[4].appl  posx  ETV
vector 93  scenario.node[4].appl  posy  ETV
vector 110  scenario.node[5].appl  distance  ETV
vector 111  scenario.node[5].appl  relativeSpeed  ETV
vector 112  scenario.node[5].appl  nodeId  ETV
vector 116  scenario.node[5].appl  acceleration  ETV
vector 117  scenario.node[5].appl  controllerAcceleration  ETV
vector 113  scenario.node[5].appl  speed  ETV
vector 114  scenario.node[5].appl  posx  ETV
vector 115  scenario.node[5].appl  posy  ETV
vector 132  scenario.node[6].appl  distance  ETV
vector 133  scenario.node[6].appl  relativeSpeed  ETV
vector 134  scenario.node[6].appl  nodeId  ETV
vector 138  scenario.node[6].appl  acceleration  ETV
vector 139  scenario.node[6].appl  controllerAcceleration  ETV
vector 135  scenario.node[6].appl  speed  ETV
vector 136  scenario.node[6].appl  posx  ETV
vector 137  scenario.node[6].appl  posy  ETV
vector 154  scenario.node[7].appl  distance  ETV
vector 155  scenario.node[7].appl  relativeSpeed  ETV
vector 156  scenario.node[7].appl  nodeId  ETV
vector 160  scenario.node[7].appl  acceleration  ETV
vector 161  scenario.node[7].appl  controllerAcceleration  ETV
vector 157  scenario.node[7].appl  speed  ETV
vector 158  scenario.node[7].appl  posx  ETV
vector 159  scenario.node[7].appl  posy  ETV
vector 168  scenario.node[7].prot  frontDelay  ETV
vector 166  scenario.node[7].prot  frontDelayId  ETV
vector 146  scenario.node[6].prot  frontDelay  ETV
vector 144  scenario.node[6].prot  frontDelayId  ETV
vector 35  scenario.node[1].prot  leaderDelay  ETV
vector 33  scenario.node[1].prot  leaderDelayId  ETV
vector 36  scenario.node[1].prot  frontDelay  ETV
vector 34  scenario.node[1].prot  frontDelayId  ETV
vector 57  scenario.node[2].prot  leaderDelay  ETV
vector 55  scenario.node[2].prot  leaderDelayId  ETV
vector 79  scenario.node[3].prot  leaderDelay  ETV
vector 77  scenario.node[3].prot  leaderDelayId  ETV
vector 101  scenario.node[4].prot  leaderDelay  ETV
vector 99  scenario.node[4].prot  leaderDelayId  ETV
vector 123  scenario.node[5].prot  leaderDelay  ETV
vector 121  scenario.node[5].prot  leaderDelayId  ETV
vector 145  scenario.node[6].prot  leaderDelay  ETV
vector 143  scenario.node[6].prot  leaderDelayId  ETV
vector 167  scenario.node[7].prot  leaderDelay  ETV
vector 165  scenario.node[7].prot  leaderDelayId  ETV
vector 102  scenario.node[4].prot  frontDelay  ETV
vector 100  scenario.node[4].prot  frontDelayId  ETV
vector 80  scenario.node[3].prot  frontDelay  ETV
vector 78  scenario.node[3].prot  frontDelayId  ETV
vector 124  scenario.node[5].prot  frontDelay  ETV
vector 122  scenario.node[5].prot  frontDelayId  ETV
vector 58  scenario.node[2].prot  frontDelay  ETV
vector 56  scenario.node[2].prot  frontDelayId  ETV
vector 8  scenario.node[0].prot  nodeId  ETV
vector 9  scenario.node[0].prot  busyTime  ETV
vector 10  scenario.node[0].prot  collisions  ETV
vector 30  scenario.node[1].prot  nodeId  ETV
vector 31  scenario.node[1].prot  busyTime  ETV
vector 32  scenario.node[1].prot  collisions  ETV
vector 52  scenario.node[2].prot  nodeId  ETV
vector 53  scenario.node[2].prot  busyTime  ETV
vector 54  scenario.node[2].prot  collisions  ETV
vector 74  scenario.node[3].prot  nodeId  ETV
vector 75  scenario.node[3].prot  busyTime  ETV
vector 76  scenario.node[3].prot  collisions  ETV
vector 96  scenario.node[4].prot  nodeId  ETV
vector 97  scenario.node[4].prot  busyTime  ETV
vector 98  scenario.node[4].prot  collisions  ETV
vector 118  scenario.node[5].prot  nodeId  ETV
vector 119  scenario.node[5].prot  busyTime  ETV
vector 120  scenario.node[5].prot  collisions  ETV
vector 140  scenario.node[6].prot  nodeId  ETV
vector 141  scenario.node[6].prot  busyTime  ETV
vector 142  scenario.node[6].prot  collisions  ETV
vector 162  scenario.node[7].prot  nodeId  ETV
vector 163  scenario.node[7].prot  busyTime  ETV
vector 164  scenario.node[7].prot  collisions  ETV
7	11084 7577 232 176454 1.11 32.71 317 -1.5 1.5 10.74602282122 498.30984018651
6	18661 9932 232 176454 1.11 32.71 317 -1.472274679513 1.4513407705126 12.673997780877 335.5959615835
5	28593 6369 232 176454 1.11 32.71 317 36.55 36.55 11586.35 423481.0925
4	34962 9499 232 176454 1.11 32.71 317 99.282191848622 542.23302880072 102024.40312871 38045203.308971
3	44461 9505 232 176454 1.11 32.71 317 12.59914837223 15.853603639796 4443.8431118032 62529.943578033
1	53966 5101 232 176454 1.11 32.71 317 0 0 0 0
0	59067 5418 232 176454 1.11 32.71 317 -1 -1 -317 317
2	64485 5101 232 176454 1.11 32.71 317 0 0 0 0
10	69586 438 5168 172478 2 32 31 0 0 0 0
9	70024 594 5168 172478 2 32 31 0.023297 0.02625 0.810797 0.021214625209
8	70618 407 5168 172478 2 32 31 0 0 0 0
29	71025 10187 233 176455 1.11 32.71 317 -1.5233934313509 1.5241491847198 11.969567001328 503.84230549085
28	81212 10231 233 176455 1.11 32.71 317 -1.4872877336979 1.4632119881083 12.927732592713 339.31054811249
27	91443 6686 233 176455 1.11 32.71 317 36.55 36.55 11586.35 423481.0925
26	98129 9829 233 176455 1.11 32.71 317 90.282188034058 533.14239565198 99168.646871287 36233213.91515
25	107958 9827 233 176455 1.11 32.71 317 12.591606561291 15.859016328899 4442.9447182041 62506.816093323
23	117785 10725 233 176455 1.11 32.71 317 -0.085370881351961 0.0854927136455 0.77165362126958 1.2160098235846
22	128510 9831 233 176455 1.11 32.71 317 4.9094714808437 5.1291570099126 1587.7382895557 7953.5351316383
24	138341 5418 233 176455 1.11 32.71 317 1 1 317 317
36	143759 12606 1034 176700 1.262216930646 32.762210718679 316 0.09999862242 0.10001166314 31.599992448491 3.1599984945591
35	156365 12606 1034 176700 1.262216930646 32.762210718679 316 0.09999862242 0.10001166314 31.599992448491 3.1599984945591
34	168971 8528 1034 176700 1.262216930646 32.762210718679 316 1 1 316 316
33	177499 8528 1034 176700 1.262216930646 32.762210718679 316 1 1 316 316
32	186027 438 5169 172479 2 32 31 0 0 0 0
31	186465 625 5169 172479 2 32 31 0.023296 0.02625 0.810796 0.021214578616
30	187090 438 5169 172479 2 32 31 1 1 31 31
51	187528 10171 234 176456 1.11 32.71 317 -1.4963007063708 1.4967154524215 12.412798489953 482.97885361255
50	197699 10222 234 176456 1.11 32.71 317 -1.4778825499601 1.4526090796357 12.899705408112 336.08079579401
49	207921 6686 234 176456 1.11 32.71 317 36.55 36.55 11586.35 423481.0925
48	214607 9822 234 176456 1.11 32.71 317 81.282188034058 524.1177270489 96314.373831126 34473361.79614
47	224429 9818 234 176456 1.11 32.71 317 12.597840099633 15.853308341145 4442.6963626914 62497.281627988
45	234247 10789 234 176456 1.11 32.71 317 -0.019406092240807 0.017598487203578 0.1190781868412 0.034724060580415
44	245036 9814 234 176456 1.11 32.71 317 4.9758459113438 5.0458892887129 1586.268073051 7937.7835681803
46	254850 5418 234 176456 1.11 32.71 317 2 2 634 1268
58	260268 12571 1312 176416 1.302609200833 32.702604335879 315 0.099998623169 0.10001166295 31.500006795504 3.1500013640936
57	272839 12601 1040 176706 1.262216960667 32.762210748782 316 0.099998622421 0.10001166314 31.599992448573 3.1599984945755
56	285440 8508 1312 176416 1.302609200833 32.702604335879 315 2 2 630 1260
55	293948 8529 1040 176706 1.262216960667 32.762210748782 316 2 2 632 1264
54	302477 438 5170 172480 2 32 31 0 0 0 0
53	302915 625 5170 172480 2 32 31 0.023297 0.02625 0.810797 0.021214625209
52	303540 438 5170 172480 2 32 31 2 2 62 124
73	303978 10192 235 176457 1.11 32.71 317 -1.5144504184155 1.5154441727111 12.237738472139 493.79330166551
72	314170 10247 235 176457 1.11 32.71 317 -1.4663369027497 1.4406243145913 12.794233490457 330.17067259808
71	324417 6686 235 176457 1.11 32.71 317 36.55 36.55 11586.35 423481.0925
70	331103 9824 235 176457 1.11 32.71 317 72.282188034058 515.10163466752 93460.117733514 32764972.254064
69	340927 9825 235 176457 1.11 32.71 317 12.609451331645 15.840833680872 4442.5316808744 62488.720721913
67	350752 10868 235 176457 1.11 32.71 317 -0.015760221391654 0.014948752827303 0.035684762832924 0.019463431376326
66	361620 9811 235 176457 1.11 32.71 317 4.9816113850634 5.0406527671715 1586.2528039752 7937.5977039711
68	371431 5418 235 176457 1.11 32.71 317 3 3 951 2853
80	376849 12610 1176 176836 1.287873050729 32.787879839012 316 0.099998622433 0.10001166287 31.600005448741 3.1600010947429
79	389459 12618 1046 176712 1.262216990687 32.762210778859 316 0.099998622426 0.100011663143 31.59999244863 3.1599984945869
78	402077 8531 1176 176836 1.287873050729 32.787879839012 316 3 3 948 2844
77	410608 8531 1046 176712 1.262216990687 32.762210778859 316 3 3 948 2844
76	419139 438 5171 172481 2 32 31 0 0 0 0
75	419577 625 5171 172481 2 32 31 0.023297 0.02625 0.810797 0.021214625209
74	420202 438 5171 172481 2 32 31 3 3 93 279
117	420640 10516 237 176459 1.11 32.71 317 -1.5085423827064 3.7503301042073 57.797881359164 679.66520678252
116	431156 10426 237 176459 1.11 32.71 317 -1.4566506715994 2.5 42.817569649958 423.84071013905
115	441582 7003 237 176459 1.11 32.71 317 36.55 36.55 11586.35 423481.0925
114	448585 10129 237 176459 1.11 32.71 317 54.282189941406 500.924080941 87785.628388224 29535238.076475
113	458714 10143 237 176459 1.11 32.71 317 12.615646211585 18.122246820748 4481.7985545326 63693.639332822
111	468857 10977 237 176459 1.11 32.71 317 -0.03035779400053 0.60436810299901 8.9003118846855 3.2762895736037
110	479834 10148 237 176459 1.11 32.71 317 4.9827406468071 5.9044602630088 1596.910317422 8050.4437044879
112	489982 5735 237 176459 1.11 32.71 317 5 5 1585 7925
124	495717 12887 1244 176353 1.297503110771 32.697511264187 315 0.099998624511 0.100011662942 31.500006813874 3.1500013677675
123	508604 12927 1058 176724 1.262217050729 32.76221082565 316 0.099998621435 0.100011663147 31.599992435379 3.1599984919367
122	521531 8829 1244 176353 1.297503110771 32.697511264187 315 5 5 1575 7875
121	530360 8847 1058 176724 1.262217050729 32.76221082565 316 5 5 1580 7900
120	539207 469 5173 172483 2 32 31 0 0 0 0
119	539676 656 5173 172483 2 32 31 0.023297 0.02625 0.810797 0.021214625209
118	540332 469 5173 172483 2 32 31 5 5 155 775
139	540801 10506 238 176460 1.11 32.71 317 -1.4954220885793 2.6326014320012 36.613816499845 558.89190556331
138	551307 10573 238 176460 1.11 32.71 317 -1.4604221038748 2.3525005779595 33.313620579368 390.34358329007
137	561880 7003 238 176460 1.11 32.71 317 36.55 36.55 11586.35 423481.0925
136	568883 10139 238 176460 1.11 32.71 317 45.282189941406 490.48845981307 84917.181877937 27966500.421325
135	579022 10136 238 176460 1.11 32.71 317 12.614538883904 17.185253915846 4467.1121551741 63230.755330249
133	589158 11234 238 176460 1.11 32.71 317 -0.0098296245058602 0.9253704544159 14.258223662009 9.5913646584291
132	600392 10124 238 176460 1.11 32.71 317 4.9805089880359 6.4168812698289 1600.1527822996 8089.4447333389
134	610516 5735 238 176460 1.11 32.71 317 6 6 1902 11412
146	616251 12926 970 176636 1.247594780542 32.747601585772 316 0.099998623722 0.100011663076 31.600005465688 3.160001098132
145	629177 12912 1064 176730 1.26221708075 32.762210860618 316 0.099998621749 0.100011663144 31.599992440326 3.1599984929261
144	642089 8841 970 176636 1.247594780542 32.747601585772 316 6 6 1896 11376
143	650930 8845 1064 176730 1.26221708075 32.762210860618 316 6 6 1896 11376
142	659775 469 5174 172484 2 32 31 0 0 0 0
141	660244 656 5174 172484 2 32 31 0.023297 0.02625 0.810797 0.021214625209
140	660900 469 5174 172484 2 32 31 6 6 186 1116
161	661369 10500 239 176461 1.11 32.71 317 -1.4854568324608 2.0656876023366 26.526879682982 504.64668165892
160	671869 10557 239 176461 1.11 32.71 317 -1.4553421949323 1.9822013126451 24.324066652575 357.02028241568
159	682426 7003 239 176461 1.11 32.71 317 36.55 36.55 11586.35 423481.0925
158	689429 10147 239 176461 1.11 32.71 317 36.282188987732 480.31402666898 82052.835437858 26453495.611107
157	699576 10136 239 176461 1.11 32.71 317 12.619729351632 16.29617298267 4455.0549957496 62857.806525279
155	709712 11234 239 176461 1.11 32.71 317 -0.0093026012278905 0.88082434223788 11.724023218698 7.3662977984755
154	720946 10145 239 176461 1.11 32.71 317 4.9964428043817 6.1566515254304 1596.1052968907 8043.3451268438
156	731091 5735 239 176461 1.11 32.71 317 7 7 2219 15533
168	736826 12926 832 176492 1.212136690479 32.712130482059 316 0.099998622806 0.100011663088 31.599992452038 3.1599984952682
167	749752 12929 1070 176736 1.26221711077 32.762210894705 316 0.099998622046 0.100011663145 31.599992444393 3.1599984937395
166	762681 8851 832 176492 1.212136690479 32.712130482059 316 7 7 2212 15484
165	771532 8848 1070 176736 1.26221711077 32.762210894705 316 7 7 2212 15484
164	780380 469 5175 172485 2 32 31 0 0 0 0
163	780849 656 5175 172485 2 32 31 0.023297 0.02625 0.810797 0.021214625209
162	781505 469 5175 172485 2 32 31 7 7 217 1519
88	781974 9834 236 176874 1.11 32.79 318 0 5.0268460312766 1542.3643653416 7627.525981085
89	791808 10840 236 176874 1.11 32.79 318 -3.7515608681014 0.014322356001266 -52.541591142681 130.90258273454
90	802648 5436 236 176874 1.11 32.79 318 4 4 1272 5088
91	808084 9855 236 176874 1.11 32.79 318 12.620311445297 18.896931998829 4510.090700813 64348.327439794
92	817939 9860 236 176874 1.11 32.79 318 63.282188034058 512.34911499052 91163.075724922 31415138.264848
93	827799 6708 236 176874 1.11 32.79 318 36.55 36.55 11622.9 424816.995
94	834507 10128 236 176874 1.11 32.79 318 -1.456206425096 2.5 51.267672745903 448.1885401134
95	844635 10213 236 176874 1.11 32.79 318 -1.5000260501124 5.9373284880898 105.40261400478 1026.0504328006
96	854848 438 5172 172482 2 32 31 4 4 124 496
97	855286 625 5172 172482 2 32 31 0.023297 0.02625 0.810797 0.021214625209
98	855911 438 5172 172482 2 32 31 0 0 0 0
99	856349 8516 1052 176718 1.262217020708 32.76221079246 316 4 4 1264 5056
100	864865 8835 1108 176768 1.276579020708 32.776585792337 316 4 4 1264 5056
101	873700 12899 1052 176718 1.262217020708 32.76221079246 316 0.099998621222 0.100011663146 31.59999243221 3.1599984913029
102	886599 12907 1108 176768 1.276579020708 32.776585792337 316 0.099998621217 0.100011662875 31.600005432087 3.1600010914121
