file 961877 1512141811                                          
version 2
run SinusoidalSpeedInjectionAttack-87-20171201-16:23:14-75572
attr CACCSpacing 20
attr attackAcc -30
attr attackPos 7
attr attackSpeed 0
attr attackStart 30
attr attacker 3
attr beaconInterval 0.1
attr configname SinusoidalSpeedInjectionAttack
attr controller 1
attr datetime 20171201-16:23:14
attr experiment SinusoidalSpeedInjectionAttack
attr fakeAcc "(3 == 4)"
attr fakePos "(3 == 2)"
attr fakeSpeed "(3 == 3)"
attr inifile omnetpp_87.ini
attr iterationvars "$attacker=3, $attackSpeed=0, $attackPos=7, $attackAcc=-30, $leaderSpeed=100, $controller=1, $CACCSpacing=20, $sController=\"CACC\", $attackStart=30, $0=20, $1=0, $nCars=8, $platoonSize=8, $nLanes=1, $beaconInterval=0.1, $priority=2, $packetSize=200, $ploegH=0.5, $leaderHeadway=1.2, $fakeSpeed=(3 == 3), $fakeAcc=(3 == 4), $fakePos=(3 == 2)"
attr iterationvarsf attacker=3,attackSpeed=0,attackPos=7,attackAcc=-30,leaderSpeed=100,controller=1,CACCSpacing=20,sController=CACC,attackStart=30,20,0,nCars=8,platoonSize=8,nLanes=1,beaconInterval=0.1,priority=2,packetSize=200,ploegH=0.5,leaderHeadway=1.2,fakeSpeed=(3_==_3),fakeAcc=(3_==_4),fakePos=(3_==_2)-
attr leaderHeadway 1.2
attr leaderSpeed 100
attr measurement "$attacker=3, $attackSpeed=0, $attackPos=7, $attackAcc=-30, $leaderSpeed=100, $controller=1, $CACCSpacing=20, $sController=\"CACC\", $attackStart=30, $0=20, $1=0, $nCars=8, $platoonSize=8, $nLanes=1, $beaconInterval=0.1, $priority=2, $packetSize=200, $ploegH=0.5, $leaderHeadway=1.2, $fakeSpeed=(3 == 3), $fakeAcc=(3 == 4), $fakePos=(3 == 2)"
attr nCars 8
attr nLanes 1
attr network scenario
attr packetSize 200
attr platoonSize 8
attr ploegH 0.5
attr priority 2
attr processid 75572
attr repetition 2
attr replication #2
attr resultdir results
attr runnumber 87
attr sController "\"CACC\""
attr seedset 2
param **.coreDebug false
param **.debug false
param **.headway 0.1s
param **.numberOfCars 8
param **.numberOfCarsPerPlatoon 8
param **.numberOfLanes 1
param **.numericController 1
param **.traffic.nCars 8
param **.traffic.nLanes 1
param **.traffic.platoonInsertDistance 20m
param **.traffic.platoonInsertHeadway 0s
param **.traffic.platoonInsertSpeed 100kmph
param **.traffic.platoonInsertTime "1 s"
param **.traffic.platoonLeaderHeadway 1.2s
param **.traffic.platoonSize 8
param **.traffic.platooningVType "\"vtypeauto\""
param **.traffic_type "\"PlatoonsTrafficManager\""
param *.**.nic.mac1609_4.bitrate 6Mbps
param *.**.nic.mac1609_4.txPower 100mW
param *.**.nic.mac1609_4.useServiceChannel false
param *.**.nic.phy80211p.analogueModels "xmldoc(\"config.xml\")"
param *.**.nic.phy80211p.decider "xmldoc(\"config.xml\")"
param *.**.nic.phy80211p.maxTXPower 100mW
param *.**.nic.phy80211p.sensitivity -94dBm
param *.**.nic.phy80211p.thermalNoise -95dBm
param *.**.nic.phy80211p.usePropagationDelay true
param *.**.nic.phy80211p.useThermalNoise true
param *.annotations.draw false
param *.connectionManager.alpha 2.0
param *.connectionManager.carrierFrequency "5.890e9 Hz"
param *.connectionManager.pMax 100mW
param *.connectionManager.sat -94dBm
param *.connectionManager.sendDirect true
param *.manager.autoShutdown true
param *.manager.commandLine "\"sumo --remote-port $port --seed $seed --configuration-file $configFile\""
param *.manager.configFile "\"./sumocfg/freeway.sumo.cfg\""
param *.manager.host "\"localhost\""
param *.manager.margin 25
param *.manager.moduleDisplayString "\"\""
param *.manager.moduleName "\"node\""
param *.manager.moduleType "\"Car\""
param *.manager.updateInterval 0.01s
param *.node[*].appl.attackStart 30s
param *.node[*].appl.attackerType 3
param *.node[*].appl.simulationDuration "60 s"
param *.node[*].appl_type "\"SimplePlatooningApp\""
param *.node[*].helper.nCars 8
param *.node[*].helper.nLanes 1
param *.node[*].helper.platoonSize 8
param *.node[*].helper_type "\"PositionHelper\""
param *.node[*].mobility.x 0
param *.node[*].mobility.y 0
param *.node[*].mobility.z 1.895
param *.node[*].prot.attackStart 30s
param *.node[*].prot.attackerType 3
param *.node[*].prot.attackingNode 3
param *.node[*].prot.beaconingInterval 0.1s
param *.node[*].prot.fakeAcc "(3 == 4)"
param *.node[*].prot.fakePos "(3 == 2)"
param *.node[*].prot.fakeSpeed "(3 == 3)"
param *.node[*].prot.maliciousAcc "-30 mpss"
param *.node[*].prot.maliciousSpeed 0kmph
param *.node[*].prot.packetSize 200
param *.node[*].prot.priority 2
param *.node[*].prot.shiftX "7 m"
param *.node[*].prot.useControllerAcceleration true
param *.node[*].protocol_type "\"SimplePlatooningBeaconing\""
param *.node[*].scenario.accHeadway 0.1s
param *.node[*].scenario.caccC1 0.5
param *.node[*].scenario.caccOmegaN "0.2 Hz"
param *.node[*].scenario.caccSpacing 20m
param *.node[*].scenario.caccXi 1
param *.node[*].scenario.controller "\"CACC\""
param *.node[*].scenario.engineTau "0.5 s"
param *.node[*].scenario.leaderHeadway 1.2s
param *.node[*].scenario.leaderSpeed 100kmph
param *.node[*].scenario.ploegH 0.5s
param *.node[*].scenario.ploegKd 0.7
param *.node[*].scenario.ploegKp 0.2
param *.node[*].scenario.useRealisticEngine false
param *.node[*].scenario_type "\"SinusoidalScenario\""
param *.node[*].unicast.packetLossRate 0
param *.obstacles.debug false
param *.playgroundSizeX 65000m
param *.playgroundSizeY 25000m
param *.playgroundSizeZ 50m
param *.world.use2D false
param *.world.useTorus false

vector 0  scenario.node[0].appl  distance  ETV
vector 1  scenario.node[0].appl  relativeSpeed  ETV
vector 2  scenario.node[0].appl  nodeId  ETV
vector 6  scenario.node[0].appl  acceleration  ETV
vector 7  scenario.node[0].appl  controllerAcceleration  ETV
vector 3  scenario.node[0].appl  speed  ETV
vector 4  scenario.node[0].appl  posx  ETV
vector 5  scenario.node[0].appl  posy  ETV
vector 22  scenario.node[1].appl  distance  ETV
vector 23  scenario.node[1].appl  relativeSpeed  ETV
vector 24  scenario.node[1].appl  nodeId  ETV
vector 28  scenario.node[1].appl  acceleration  ETV
vector 29  scenario.node[1].appl  controllerAcceleration  ETV
vector 25  scenario.node[1].appl  speed  ETV
vector 26  scenario.node[1].appl  posx  ETV
vector 27  scenario.node[1].appl  posy  ETV
vector 44  scenario.node[2].appl  distance  ETV
vector 45  scenario.node[2].appl  relativeSpeed  ETV
vector 46  scenario.node[2].appl  nodeId  ETV
vector 50  scenario.node[2].appl  acceleration  ETV
vector 51  scenario.node[2].appl  controllerAcceleration  ETV
vector 47  scenario.node[2].appl  speed  ETV
vector 48  scenario.node[2].appl  posx  ETV
vector 49  scenario.node[2].appl  posy  ETV
vector 66  scenario.node[3].appl  distance  ETV
vector 67  scenario.node[3].appl  relativeSpeed  ETV
vector 68  scenario.node[3].appl  nodeId  ETV
vector 72  scenario.node[3].appl  acceleration  ETV
vector 73  scenario.node[3].appl  controllerAcceleration  ETV
vector 69  scenario.node[3].appl  speed  ETV
vector 70  scenario.node[3].appl  posx  ETV
vector 71  scenario.node[3].appl  posy  ETV
vector 88  scenario.node[4].appl  distance  ETV
vector 89  scenario.node[4].appl  relativeSpeed  ETV
vector 90  scenario.node[4].appl  nodeId  ETV
vector 94  scenario.node[4].appl  acceleration  ETV
vector 95  scenario.node[4].appl  controllerAcceleration  ETV
vector 91  scenario.node[4].appl  speed  ETV
vector 92  scenario.node[4].appl  posx  ETV
vector 93  scenario.node[4].appl  posy  ETV
vector 110  scenario.node[5].appl  distance  ETV
vector 111  scenario.node[5].appl  relativeSpeed  ETV
vector 112  scenario.node[5].appl  nodeId  ETV
vector 116  scenario.node[5].appl  acceleration  ETV
vector 117  scenario.node[5].appl  controllerAcceleration  ETV
vector 113  scenario.node[5].appl  speed  ETV
vector 114  scenario.node[5].appl  posx  ETV
vector 115  scenario.node[5].appl  posy  ETV
vector 132  scenario.node[6].appl  distance  ETV
vector 133  scenario.node[6].appl  relativeSpeed  ETV
vector 134  scenario.node[6].appl  nodeId  ETV
vector 138  scenario.node[6].appl  acceleration  ETV
vector 139  scenario.node[6].appl  controllerAcceleration  ETV
vector 135  scenario.node[6].appl  speed  ETV
vector 136  scenario.node[6].appl  posx  ETV
vector 137  scenario.node[6].appl  posy  ETV
vector 154  scenario.node[7].appl  distance  ETV
vector 155  scenario.node[7].appl  relativeSpeed  ETV
vector 156  scenario.node[7].appl  nodeId  ETV
vector 160  scenario.node[7].appl  acceleration  ETV
vector 161  scenario.node[7].appl  controllerAcceleration  ETV
vector 157  scenario.node[7].appl  speed  ETV
vector 158  scenario.node[7].appl  posx  ETV
vector 159  scenario.node[7].appl  posy  ETV
vector 168  scenario.node[7].prot  frontDelay  ETV
vector 166  scenario.node[7].prot  frontDelayId  ETV
vector 146  scenario.node[6].prot  frontDelay  ETV
vector 144  scenario.node[6].prot  frontDelayId  ETV
vector 35  scenario.node[1].prot  leaderDelay  ETV
vector 33  scenario.node[1].prot  leaderDelayId  ETV
vector 36  scenario.node[1].prot  frontDelay  ETV
vector 34  scenario.node[1].prot  frontDelayId  ETV
vector 57  scenario.node[2].prot  leaderDelay  ETV
vector 55  scenario.node[2].prot  leaderDelayId  ETV
vector 79  scenario.node[3].prot  leaderDelay  ETV
vector 77  scenario.node[3].prot  leaderDelayId  ETV
vector 101  scenario.node[4].prot  leaderDelay  ETV
vector 99  scenario.node[4].prot  leaderDelayId  ETV
vector 123  scenario.node[5].prot  leaderDelay  ETV
vector 121  scenario.node[5].prot  leaderDelayId  ETV
vector 145  scenario.node[6].prot  leaderDelay  ETV
vector 143  scenario.node[6].prot  leaderDelayId  ETV
vector 167  scenario.node[7].prot  leaderDelay  ETV
vector 165  scenario.node[7].prot  leaderDelayId  ETV
vector 102  scenario.node[4].prot  frontDelay  ETV
vector 100  scenario.node[4].prot  frontDelayId  ETV
vector 80  scenario.node[3].prot  frontDelay  ETV
vector 78  scenario.node[3].prot  frontDelayId  ETV
vector 124  scenario.node[5].prot  frontDelay  ETV
vector 122  scenario.node[5].prot  frontDelayId  ETV
vector 58  scenario.node[2].prot  frontDelay  ETV
vector 56  scenario.node[2].prot  frontDelayId  ETV
vector 8  scenario.node[0].prot  nodeId  ETV
vector 9  scenario.node[0].prot  busyTime  ETV
vector 10  scenario.node[0].prot  collisions  ETV
vector 30  scenario.node[1].prot  nodeId  ETV
vector 31  scenario.node[1].prot  busyTime  ETV
vector 32  scenario.node[1].prot  collisions  ETV
vector 52  scenario.node[2].prot  nodeId  ETV
vector 53  scenario.node[2].prot  busyTime  ETV
vector 54  scenario.node[2].prot  collisions  ETV
vector 74  scenario.node[3].prot  nodeId  ETV
vector 75  scenario.node[3].prot  busyTime  ETV
vector 76  scenario.node[3].prot  collisions  ETV
vector 96  scenario.node[4].prot  nodeId  ETV
vector 97  scenario.node[4].prot  busyTime  ETV
vector 98  scenario.node[4].prot  collisions  ETV
vector 118  scenario.node[5].prot  nodeId  ETV
vector 119  scenario.node[5].prot  busyTime  ETV
vector 120  scenario.node[5].prot  collisions  ETV
vector 140  scenario.node[6].prot  nodeId  ETV
vector 141  scenario.node[6].prot  busyTime  ETV
vector 142  scenario.node[6].prot  collisions  ETV
vector 162  scenario.node[7].prot  nodeId  ETV
vector 163  scenario.node[7].prot  busyTime  ETV
vector 164  scenario.node[7].prot  collisions  ETV
7	11084 8087 232 188724 1.11 34.91 339 -1.5 1.5 -14.445909367114 537.75117757905
6	19171 10650 232 188724 1.11 34.91 339 -1.4722746794938 1.451340770512 -12.507156545297 366.31782055014
5	29821 6831 232 188724 1.11 34.91 339 36.55 36.55 12390.45 452870.9475
4	36652 10183 232 188724 1.11 34.91 339 205.67107315037 1148.8760684198 229955.61450124 181244261.12783
3	46835 10185 232 188724 1.11 34.91 339 26.488037261118 29.742492528104 9459.3941108967 264201.67575166
1	57020 5475 232 188724 1.11 34.91 339 0 0 0 0
0	62495 5814 232 188724 1.11 34.91 339 -1 -1 -339 339
2	68309 5475 232 188724 1.11 34.91 339 0 0 0 0
10	73784 468 5168 183634 2 34 33 0 0 0 0
9	74252 634 5168 183634 2 34 33 0.023297 0.02625 0.863297 0.022592750209
8	74886 435 5168 183634 2 34 33 0 0 0 0
29	75321 9990 233 188725 1.11 34.91 339 -1.5201885305329 1.5215379202346 -16.098573698503 539.10779439108
28	85311 10972 233 188725 1.11 34.91 339 -1.4845166976844 1.4492363479558 -12.152273595334 366.70811490536
27	96283 7170 233 188725 1.11 34.91 339 36.55 36.55 12390.45 452870.9475
26	103453 10517 233 188725 1.11 34.91 339 181.67107315063 1124.8332518529 221797.01037754 170365507.70993
25	113970 10529 233 188725 1.11 34.91 339 26.48258984786 29.73823345156 9458.980687308 264178.29560197
23	124499 11494 233 188725 1.11 34.91 339 -0.083288756943197 0.092346610281723 0.53849515411936 1.3099875324374
22	135993 10532 233 188725 1.11 34.91 339 19.942679175015 20.212890321102 6802.5958552308 136506.92809217
24	146525 5814 233 188725 1.11 34.91 339 1 1 339 339
36	152339 13500 1034 188970 1.262218481716 34.962209986428 338 0.099987125234 0.100012886204 33.79999126593 3.3799982543494
35	165839 13500 1034 188970 1.262218481716 34.962209986428 338 0.099987125234 0.100012886204 33.79999126593 3.3799982543494
34	179339 9136 1034 188970 1.262218481716 34.962209986428 338 1 1 338 338
33	188475 9136 1034 188970 1.262218481716 34.962209986428 338 1 1 338 338
32	197611 468 5169 183635 2 34 33 0 0 0 0
31	198079 667 5169 183635 2 34 33 0.023296 0.02625 0.863296 0.022592703616
30	198746 468 5169 183635 2 34 33 1 1 33 33
51	199214 10894 234 188726 1.11 34.91 339 -1.4917898288586 1.4990053105845 -15.411431485935 520.55988397569
50	210108 10949 234 188726 1.11 34.91 339 -1.4755502027491 1.4415473075104 -11.946110763988 363.87382133175
49	221057 7170 234 188726 1.11 34.91 339 36.55 36.55 12390.45 452870.9475
48	228227 10518 234 188726 1.11 34.91 339 157.67107315063 1100.8204212179 213655.65943433 159906434.65052
47	238745 10527 234 188726 1.11 34.91 339 26.486010879124 29.732972235831 9458.8585524046 264169.17362528
45	249272 11627 234 188726 1.11 34.91 339 -0.017774645562763 0.01657816441201 0.24365763931773 0.032108205867621
44	260899 10514 234 188726 1.11 34.91 339 19.98449325836 20.053060382146 6785.3485005095 135814.13447405
46	271413 5814 234 188726 1.11 34.91 339 2 2 678 1356
58	277227 13479 1312 188686 1.302598202214 34.902602873092 337 0.099999759924 0.100012763807 33.700004432096 3.3700008874138
57	290706 13506 1040 188976 1.262218561772 34.962210066523 338 0.099987125224 0.100012886207 33.799991265969 3.3799982543572
56	304212 9121 1312 188686 1.302598202214 34.902602873092 337 2 2 674 1348
55	313333 9142 1040 188976 1.262218561772 34.962210066523 338 2 2 676 1352
54	322475 468 5170 183636 2 34 33 0 0 0 0
53	322943 667 5170 183636 2 34 33 0.023297 0.02625 0.863297 0.022592750209
52	323610 468 5170 183636 2 34 33 2 2 66 132
73	324078 10835 235 188727 1.11 34.91 339 -1.5133685791054 1.507961590305 -15.711309919309 533.47907423191
72	334913 10979 235 188727 1.11 34.91 339 -1.4653396891678 1.4363794004321 -11.793078998263 359.0261940697
71	345892 7170 235 188727 1.11 34.91 339 36.55 36.55 12390.45 452870.9475
70	353062 10523 235 188727 1.11 34.91 339 133.67108078003 1076.8533338961 205522.42951456 149851513.78956
69	363585 10529 235 188727 1.11 34.91 339 26.494697527224 29.724026757341 9459.1935368848 264184.75624772
67	374114 11704 235 188727 1.11 34.91 339 -0.015548640117991 0.011230165382802 -0.21552337248853 0.013094307122704
66	385818 10522 235 188727 1.11 34.91 339 19.962130300895 20.035282165289 6777.2366194561 135489.58364646
68	396340 5814 235 188727 1.11 34.91 339 3 3 1017 3051
80	402154 13513 1176 189106 1.287874801937 34.98787930635 338 0.099999759933 0.100012763801 33.800004265631 3.3800008541208
79	415667 13498 1046 188982 1.262218641827 34.962210146466 338 0.099987125217 0.100012886209 33.799991265857 3.3799982543348
78	429165 9143 1176 189106 1.287874801937 34.98787930635 338 3 3 1014 3042
77	438308 9136 1046 188982 1.262218641827 34.962210146466 338 3 3 1014 3042
76	447444 468 5171 183637 2 34 33 0 0 0 0
75	447912 667 5171 183637 2 34 33 0.023297 0.02625 0.863297 0.022592750209
74	448579 468 5171 183637 2 34 33 3 3 99 297
95	449047 10942 236 188728 1.11 34.91 339 -6.8202247441672 1.5 -184.94243453777 1183.5014239991
94	459989 10988 236 188728 1.11 34.91 339 -4.8740566880053 1.4289148559932 -179.71144577608 923.4978062721
93	470977 7170 236 188728 1.11 34.91 339 36.55 36.55 12390.45 452870.9475
92	478147 10526 236 188728 1.11 34.91 339 109.67108078003 1002.1843306351 196506.98018795 138415216.5737
91	488673 10525 236 188728 1.11 34.91 339 9.8439912411077 29.713822390926 8946.6278278543 242393.12847469
89	499198 11541 236 188728 1.11 34.91 339 -0.013442531401097 16.802832502131 512.68363982046 6947.2513152065
88	510739 10508 236 188728 1.11 34.91 339 19.979107535617 70.333167658493 7649.1980124331 198346.31870231
90	521247 5814 236 188728 1.11 34.91 339 4 4 1356 5424
102	527061 13834 1108 189056 1.276580721882 34.976585398895 338 0.099999759934 0.100012763824 33.800004438231 3.3800008886408
101	540895 13851 1052 188988 1.262218721883 34.962210398335 338 0.099987130806 0.10001289052 33.79999143767 3.3799982886974
100	554746 9471 1108 189056 1.276580721882 34.976585398895 338 4 4 1352 5408
99	564217 9145 1052 188988 1.262218721883 34.962210398335 338 4 4 1352 5408
98	573362 468 5172 183638 2 34 33 0 0 0 0
97	573830 667 5172 183638 2 34 33 0.023297 0.02625 0.863297 0.022592750209
96	574497 468 5172 183638 2 34 33 4 4 132 528
139	574965 11287 238 188730 1.11 34.91 339 -3.4754323266492 1.4959038795227 -104.52949429021 677.55646083353
138	586252 11355 238 188730 1.11 34.91 339 -3.144919581441 1.4350229186363 -93.903743641488 500.06480304855
137	597607 7509 238 188730 1.11 34.91 339 36.55 36.55 12390.45 452870.9475
136	605116 10853 238 188730 1.11 34.91 339 61.671076965332 986.36491321679 180834.93311273 121471958.02738
135	615969 10864 238 188730 1.11 34.91 339 18.491841897411 29.719606102249 9271.4466472687 254743.80972087
133	626833 11950 238 188730 1.11 34.91 339 -3.934287766492 0.010619119393606 -125.36093504046 409.14362807688
132	638783 10849 238 188730 1.11 34.91 339 7.5434420467825 20.027592323733 6559.3985259663 128541.7498624
134	649632 6153 238 188730 1.11 34.91 339 6 6 2034 12204
146	655785 13852 970 188906 1.247596081439 34.947600439069 338 0.09999975992 0.100012762725 33.800004118848 3.3800008247641
145	669637 13859 1064 189000 1.262218881993 34.962210449671 338 0.099987127793 0.100012887622 33.799991328896 3.3799982669426
144	683496 9489 970 188906 1.247596081439 34.947600439069 338 6 6 2028 12168
143	692985 9491 1064 189000 1.262218881993 34.962210449671 338 6 6 2028 12168
142	702476 501 5174 183640 2 34 33 0 0 0 0
141	702977 700 5174 183640 2 34 33 0.023297 0.02625 0.863297 0.022592750209
140	703677 501 5174 183640 2 34 33 6 6 198 1188
161	704178 11257 239 188731 1.11 34.91 339 -2.892106760037 1.486643172463 -74.701730432032 603.99564335307
160	715435 11337 239 188731 1.11 34.91 339 -2.786381064605 1.4298755959022 -65.425902353578 437.26159210717
159	726772 7509 239 188731 1.11 34.91 339 36.55 36.55 12390.45 452870.9475
158	734281 10862 239 188731 1.11 34.91 339 37.671077919006 970.0893150661 172827.50821495 113229119.43343
157	745143 10853 239 188731 1.11 34.91 339 21.329373368884 29.714489855221 9349.6849230108 258452.22917131
155	755996 11950 239 188731 1.11 34.91 339 -2.8144981606184 0.0086296017177645 -77.299238305688 164.97034665246
154	767946 10872 239 188731 1.11 34.91 339 12.332348780114 20.013502934621 6652.9896632944 131128.86212863
156	778818 6153 239 188731 1.11 34.91 339 7 7 2373 16611
168	784971 13847 832 188774 1.212137841273 34.912129308893 338 0.099999759918 0.100012762793 33.799991228838 3.3799982465994
167	798818 13830 1070 189006 1.262218962049 34.962210503487 338 0.099987126861 0.100012886991 33.799991302656 3.3799982616946
166	812648 9492 832 188774 1.212137841273 34.912129308893 338 7 7 2366 16562
165	822140 9476 1070 189006 1.262218962049 34.962210503487 338 7 7 2366 16562
164	831616 501 5175 183641 2 34 33 0 0 0 0
163	832117 700 5175 183641 2 34 33 0.023297 0.02625 0.863297 0.022592750209
162	832817 501 5175 183641 2 34 33 7 7 231 1617
110	833318 10885 237 189144 1.11 34.99 340 0 20.019410374198 6407.1449256381 125531.86377197
111	844203 11799 237 189144 1.11 34.99 340 -5.7171938863431 0.03221480794419 -201.01677126464 981.7142647411
112	856002 6172 237 189144 1.11 34.99 340 5 5 1700 8500
113	862174 10883 237 189144 1.11 34.99 340 14.48748195624 29.715685304418 9159.2505053569 249566.85504597
114	873057 10911 237 189144 1.11 34.99 340 85.671076965332 998.99369862939 189746.79166485 130907084.67649
115	883968 7532 237 189144 1.11 34.99 340 36.55 36.55 12427 454206.85
116	891500 11375 237 189144 1.11 34.99 340 -3.5467117851585 1.4321005833324 -133.94446253765 622.98288277592
117	902875 10715 237 189144 1.11 34.99 340 -4.1057575618804 1.5066950656995 -143.75390077174 816.15132220848
118	913590 501 5173 183639 2 34 33 5 5 165 825
119	914091 700 5173 183639 2 34 33 0.023297 0.02625 0.863297 0.022592750209
120	914791 501 5173 183639 2 34 33 0 0 0 0
121	915292 9479 1058 188994 1.262218801938 34.962210412065 338 5 5 1690 8450
122	924771 9458 1244 188617 1.297504962048 34.897509399838 337 5 5 1685 8425
123	934229 13840 1058 188994 1.262218801938 34.962210412065 338 0.099987129105 0.100012888708 33.799991371345 3.3799982754324
124	948069 13808 1244 188617 1.297504962048 34.897509399838 337 0.099999759931 0.100012763424 33.700004199008 3.3700008407961
