file 970349 1512142780                                          
version 2
run SinusoidalSpeedInjectionAttack-269-20171201-16:39:22-105077
attr CACCSpacing 20
attr attackAcc -30
attr attackPos 7
attr attackSpeed 150
attr attackStart 30
attr attacker 3
attr beaconInterval 0.1
attr configname SinusoidalSpeedInjectionAttack
attr controller 1
attr datetime 20171201-16:39:22
attr experiment SinusoidalSpeedInjectionAttack
attr fakeAcc "(3 == 4)"
attr fakePos "(3 == 2)"
attr fakeSpeed "(3 == 3)"
attr inifile omnetpp_269.ini
attr iterationvars "$attacker=3, $attackSpeed=150, $attackPos=7, $attackAcc=-30, $leaderSpeed=100, $controller=1, $CACCSpacing=20, $sController=\"CACC\", $attackStart=30, $0=20, $1=0, $nCars=8, $platoonSize=8, $nLanes=1, $beaconInterval=0.1, $priority=2, $packetSize=200, $ploegH=0.5, $leaderHeadway=1.2, $fakeSpeed=(3 == 3), $fakeAcc=(3 == 4), $fakePos=(3 == 2)"
attr iterationvarsf attacker=3,attackSpeed=150,attackPos=7,attackAcc=-30,leaderSpeed=100,controller=1,CACCSpacing=20,sController=CACC,attackStart=30,20,0,nCars=8,platoonSize=8,nLanes=1,beaconInterval=0.1,priority=2,packetSize=200,ploegH=0.5,leaderHeadway=1.2,fakeSpeed=(3_==_3),fakeAcc=(3_==_4),fakePos=(3_==_2)-
attr leaderHeadway 1.2
attr leaderSpeed 100
attr measurement "$attacker=3, $attackSpeed=150, $attackPos=7, $attackAcc=-30, $leaderSpeed=100, $controller=1, $CACCSpacing=20, $sController=\"CACC\", $attackStart=30, $0=20, $1=0, $nCars=8, $platoonSize=8, $nLanes=1, $beaconInterval=0.1, $priority=2, $packetSize=200, $ploegH=0.5, $leaderHeadway=1.2, $fakeSpeed=(3 == 3), $fakeAcc=(3 == 4), $fakePos=(3 == 2)"
attr nCars 8
attr nLanes 1
attr network scenario
attr packetSize 200
attr platoonSize 8
attr ploegH 0.5
attr priority 2
attr processid 105077
attr repetition 4
attr replication #4
attr resultdir results
attr runnumber 269
attr sController "\"CACC\""
attr seedset 4
param **.coreDebug false
param **.debug false
param **.headway 0.1s
param **.numberOfCars 8
param **.numberOfCarsPerPlatoon 8
param **.numberOfLanes 1
param **.numericController 1
param **.traffic.nCars 8
param **.traffic.nLanes 1
param **.traffic.platoonInsertDistance 20m
param **.traffic.platoonInsertHeadway 0s
param **.traffic.platoonInsertSpeed 100kmph
param **.traffic.platoonInsertTime "1 s"
param **.traffic.platoonLeaderHeadway 1.2s
param **.traffic.platoonSize 8
param **.traffic.platooningVType "\"vtypeauto\""
param **.traffic_type "\"PlatoonsTrafficManager\""
param *.**.nic.mac1609_4.bitrate 6Mbps
param *.**.nic.mac1609_4.txPower 100mW
param *.**.nic.mac1609_4.useServiceChannel false
param *.**.nic.phy80211p.analogueModels "xmldoc(\"config.xml\")"
param *.**.nic.phy80211p.decider "xmldoc(\"config.xml\")"
param *.**.nic.phy80211p.maxTXPower 100mW
param *.**.nic.phy80211p.sensitivity -94dBm
param *.**.nic.phy80211p.thermalNoise -95dBm
param *.**.nic.phy80211p.usePropagationDelay true
param *.**.nic.phy80211p.useThermalNoise true
param *.annotations.draw false
param *.connectionManager.alpha 2.0
param *.connectionManager.carrierFrequency "5.890e9 Hz"
param *.connectionManager.pMax 100mW
param *.connectionManager.sat -94dBm
param *.connectionManager.sendDirect true
param *.manager.autoShutdown true
param *.manager.commandLine "\"sumo --remote-port $port --seed $seed --configuration-file $configFile\""
param *.manager.configFile "\"./sumocfg/freeway.sumo.cfg\""
param *.manager.host "\"localhost\""
param *.manager.margin 25
param *.manager.moduleDisplayString "\"\""
param *.manager.moduleName "\"node\""
param *.manager.moduleType "\"Car\""
param *.manager.updateInterval 0.01s
param *.node[*].appl.attackStart 30s
param *.node[*].appl.attackerType 3
param *.node[*].appl.simulationDuration "60 s"
param *.node[*].appl_type "\"SimplePlatooningApp\""
param *.node[*].helper.nCars 8
param *.node[*].helper.nLanes 1
param *.node[*].helper.platoonSize 8
param *.node[*].helper_type "\"PositionHelper\""
param *.node[*].mobility.x 0
param *.node[*].mobility.y 0
param *.node[*].mobility.z 1.895
param *.node[*].prot.attackStart 30s
param *.node[*].prot.attackerType 3
param *.node[*].prot.attackingNode 3
param *.node[*].prot.beaconingInterval 0.1s
param *.node[*].prot.fakeAcc "(3 == 4)"
param *.node[*].prot.fakePos "(3 == 2)"
param *.node[*].prot.fakeSpeed "(3 == 3)"
param *.node[*].prot.maliciousAcc "-30 mpss"
param *.node[*].prot.maliciousSpeed 150kmph
param *.node[*].prot.packetSize 200
param *.node[*].prot.priority 2
param *.node[*].prot.shiftX "7 m"
param *.node[*].prot.useControllerAcceleration true
param *.node[*].protocol_type "\"SimplePlatooningBeaconing\""
param *.node[*].scenario.accHeadway 0.1s
param *.node[*].scenario.caccC1 0.5
param *.node[*].scenario.caccOmegaN "0.2 Hz"
param *.node[*].scenario.caccSpacing 20m
param *.node[*].scenario.caccXi 1
param *.node[*].scenario.controller "\"CACC\""
param *.node[*].scenario.engineTau "0.5 s"
param *.node[*].scenario.leaderHeadway 1.2s
param *.node[*].scenario.leaderSpeed 100kmph
param *.node[*].scenario.ploegH 0.5s
param *.node[*].scenario.ploegKd 0.7
param *.node[*].scenario.ploegKp 0.2
param *.node[*].scenario.useRealisticEngine false
param *.node[*].scenario_type "\"SinusoidalScenario\""
param *.node[*].unicast.packetLossRate 0
param *.obstacles.debug false
param *.playgroundSizeX 65000m
param *.playgroundSizeY 25000m
param *.playgroundSizeZ 50m
param *.world.use2D false
param *.world.useTorus false

vector 0  scenario.node[0].appl  distance  ETV
vector 1  scenario.node[0].appl  relativeSpeed  ETV
vector 2  scenario.node[0].appl  nodeId  ETV
vector 6  scenario.node[0].appl  acceleration  ETV
vector 7  scenario.node[0].appl  controllerAcceleration  ETV
vector 3  scenario.node[0].appl  speed  ETV
vector 4  scenario.node[0].appl  posx  ETV
vector 5  scenario.node[0].appl  posy  ETV
vector 22  scenario.node[1].appl  distance  ETV
vector 23  scenario.node[1].appl  relativeSpeed  ETV
vector 24  scenario.node[1].appl  nodeId  ETV
vector 28  scenario.node[1].appl  acceleration  ETV
vector 29  scenario.node[1].appl  controllerAcceleration  ETV
vector 25  scenario.node[1].appl  speed  ETV
vector 26  scenario.node[1].appl  posx  ETV
vector 27  scenario.node[1].appl  posy  ETV
vector 44  scenario.node[2].appl  distance  ETV
vector 45  scenario.node[2].appl  relativeSpeed  ETV
vector 46  scenario.node[2].appl  nodeId  ETV
vector 50  scenario.node[2].appl  acceleration  ETV
vector 51  scenario.node[2].appl  controllerAcceleration  ETV
vector 47  scenario.node[2].appl  speed  ETV
vector 48  scenario.node[2].appl  posx  ETV
vector 49  scenario.node[2].appl  posy  ETV
vector 66  scenario.node[3].appl  distance  ETV
vector 67  scenario.node[3].appl  relativeSpeed  ETV
vector 68  scenario.node[3].appl  nodeId  ETV
vector 72  scenario.node[3].appl  acceleration  ETV
vector 73  scenario.node[3].appl  controllerAcceleration  ETV
vector 69  scenario.node[3].appl  speed  ETV
vector 70  scenario.node[3].appl  posx  ETV
vector 71  scenario.node[3].appl  posy  ETV
vector 88  scenario.node[4].appl  distance  ETV
vector 89  scenario.node[4].appl  relativeSpeed  ETV
vector 90  scenario.node[4].appl  nodeId  ETV
vector 94  scenario.node[4].appl  acceleration  ETV
vector 95  scenario.node[4].appl  controllerAcceleration  ETV
vector 91  scenario.node[4].appl  speed  ETV
vector 92  scenario.node[4].appl  posx  ETV
vector 93  scenario.node[4].appl  posy  ETV
vector 110  scenario.node[5].appl  distance  ETV
vector 111  scenario.node[5].appl  relativeSpeed  ETV
vector 112  scenario.node[5].appl  nodeId  ETV
vector 116  scenario.node[5].appl  acceleration  ETV
vector 117  scenario.node[5].appl  controllerAcceleration  ETV
vector 113  scenario.node[5].appl  speed  ETV
vector 114  scenario.node[5].appl  posx  ETV
vector 115  scenario.node[5].appl  posy  ETV
vector 132  scenario.node[6].appl  distance  ETV
vector 133  scenario.node[6].appl  relativeSpeed  ETV
vector 134  scenario.node[6].appl  nodeId  ETV
vector 138  scenario.node[6].appl  acceleration  ETV
vector 139  scenario.node[6].appl  controllerAcceleration  ETV
vector 135  scenario.node[6].appl  speed  ETV
vector 136  scenario.node[6].appl  posx  ETV
vector 137  scenario.node[6].appl  posy  ETV
vector 154  scenario.node[7].appl  distance  ETV
vector 155  scenario.node[7].appl  relativeSpeed  ETV
vector 156  scenario.node[7].appl  nodeId  ETV
vector 160  scenario.node[7].appl  acceleration  ETV
vector 161  scenario.node[7].appl  controllerAcceleration  ETV
vector 157  scenario.node[7].appl  speed  ETV
vector 158  scenario.node[7].appl  posx  ETV
vector 159  scenario.node[7].appl  posy  ETV
vector 102  scenario.node[4].prot  frontDelay  ETV
vector 100  scenario.node[4].prot  frontDelayId  ETV
vector 35  scenario.node[1].prot  leaderDelay  ETV
vector 33  scenario.node[1].prot  leaderDelayId  ETV
vector 36  scenario.node[1].prot  frontDelay  ETV
vector 34  scenario.node[1].prot  frontDelayId  ETV
vector 57  scenario.node[2].prot  leaderDelay  ETV
vector 55  scenario.node[2].prot  leaderDelayId  ETV
vector 79  scenario.node[3].prot  leaderDelay  ETV
vector 77  scenario.node[3].prot  leaderDelayId  ETV
vector 101  scenario.node[4].prot  leaderDelay  ETV
vector 99  scenario.node[4].prot  leaderDelayId  ETV
vector 123  scenario.node[5].prot  leaderDelay  ETV
vector 121  scenario.node[5].prot  leaderDelayId  ETV
vector 145  scenario.node[6].prot  leaderDelay  ETV
vector 143  scenario.node[6].prot  leaderDelayId  ETV
vector 167  scenario.node[7].prot  leaderDelay  ETV
vector 165  scenario.node[7].prot  leaderDelayId  ETV
vector 80  scenario.node[3].prot  frontDelay  ETV
vector 78  scenario.node[3].prot  frontDelayId  ETV
vector 146  scenario.node[6].prot  frontDelay  ETV
vector 144  scenario.node[6].prot  frontDelayId  ETV
vector 58  scenario.node[2].prot  frontDelay  ETV
vector 56  scenario.node[2].prot  frontDelayId  ETV
vector 124  scenario.node[5].prot  frontDelay  ETV
vector 122  scenario.node[5].prot  frontDelayId  ETV
vector 168  scenario.node[7].prot  frontDelay  ETV
vector 166  scenario.node[7].prot  frontDelayId  ETV
vector 8  scenario.node[0].prot  nodeId  ETV
vector 9  scenario.node[0].prot  busyTime  ETV
vector 10  scenario.node[0].prot  collisions  ETV
vector 30  scenario.node[1].prot  nodeId  ETV
vector 31  scenario.node[1].prot  busyTime  ETV
vector 32  scenario.node[1].prot  collisions  ETV
vector 52  scenario.node[2].prot  nodeId  ETV
vector 53  scenario.node[2].prot  busyTime  ETV
vector 54  scenario.node[2].prot  collisions  ETV
vector 74  scenario.node[3].prot  nodeId  ETV
vector 75  scenario.node[3].prot  busyTime  ETV
vector 76  scenario.node[3].prot  collisions  ETV
vector 96  scenario.node[4].prot  nodeId  ETV
vector 97  scenario.node[4].prot  busyTime  ETV
vector 98  scenario.node[4].prot  collisions  ETV
vector 118  scenario.node[5].prot  nodeId  ETV
vector 119  scenario.node[5].prot  busyTime  ETV
vector 120  scenario.node[5].prot  collisions  ETV
vector 140  scenario.node[6].prot  nodeId  ETV
vector 141  scenario.node[6].prot  busyTime  ETV
vector 142  scenario.node[6].prot  collisions  ETV
vector 162  scenario.node[7].prot  nodeId  ETV
vector 163  scenario.node[7].prot  busyTime  ETV
vector 164  scenario.node[7].prot  collisions  ETV
7	11099 8156 232 190403 1.11 35.21 342 -1.5 1.5 -10.177976668406 543.85883090751
6	19255 10749 232 190403 1.11 35.21 342 -1.4722746794938 1.451340770512 -12.683107012965 366.49424999445
5	30004 6894 232 190403 1.11 35.21 342 36.55 36.55 12500.1 456878.655
4	36898 10283 232 190403 1.11 35.21 342 217.05297012302 1168.2084928369 237310.75534367 190598439.15827
3	47181 10278 232 190403 1.11 35.21 342 26.487975689908 29.742492528104 9538.8869546006 266308.04665502
1	57459 5526 232 190403 1.11 35.21 342 0 0 0 0
0	62985 5868 232 190403 1.11 35.21 342 -1 -1 -342 342
2	68853 5526 232 190403 1.11 35.21 342 0 0 0 0
10	74379 484 5234 189278 2 35 34 0 0 0 0
9	74863 655 5234 189278 2 35 34 0.023625 0.02625 0.889875 0.023297203125
8	75518 450 5234 189278 2 35 34 0 0 0 0
29	75968 10499 233 190404 1.11 35.21 342 -1.502274055613 1.5017240997091 -11.54285285658 539.02845311416
28	86467 11079 233 190404 1.11 35.21 342 -1.4793271052156 1.449106399544 -12.83270656504 366.12595123378
27	97546 7236 233 190404 1.11 35.21 342 36.55 36.55 12500.1 456878.655
26	104782 10622 233 190404 1.11 35.21 342 193.05297012329 1144.2401974998 229097.28314357 179396119.15311
25	115404 10602 233 190404 1.11 35.21 342 26.487713449239 29.744046425688 9539.199445869 266324.83340375
23	126006 11599 233 190404 1.11 35.21 342 -0.062041785116097 0.062927523962632 -0.1856601981926 0.65153626046326
22	137605 10611 233 190404 1.11 35.21 342 19.9340670704 20.098815055643 6845.4784499211 137019.91923464
24	148216 5868 233 190404 1.11 35.21 342 1 1 342 342
36	154084 13612 964 190579 1.241824401662 35.241820662074 341 0.099999703191 0.100012761594 34.099996021631 3.4099992053226
35	167696 13612 964 190579 1.241824401662 35.241820662074 341 0.099999703191 0.100012761594 34.099996021631 3.4099992053226
34	181308 9222 964 190579 1.241824401662 35.241820662074 341 1 1 341 341
33	190530 9222 964 190579 1.241824401662 35.241820662074 341 1 1 341 341
32	199752 484 5235 189279 2 35 34 0 0 0 0
31	200236 689 5235 189279 2 35 34 0.023625 0.02625 0.889875 0.023297203125
30	200925 484 5235 189279 2 35 34 1 1 34 34
51	201409 10697 234 190405 1.11 35.21 342 -1.5157394589466 1.512601067965 -12.075162006081 543.67032642686
50	212106 11068 234 190405 1.11 35.21 342 -1.4731702656803 1.4434762626166 -12.83785326053 363.9004049691
49	223174 7236 234 190405 1.11 35.21 342 36.55 36.55 12500.1 456878.655
48	230410 10615 234 190405 1.11 35.21 342 169.05297012329 1120.2565806125 220888.09791758 168595100.7016
47	241025 10626 234 190405 1.11 35.21 342 26.489539863965 29.737355875783 9539.3636090573 266332.15932144
45	251651 11707 234 190405 1.11 35.21 342 -0.017729424752147 0.015851882042782 -0.035836122710236 0.033993934899518
44	263358 10600 234 190405 1.11 35.21 342 19.972823073857 20.042588167158 6841.188509259 136847.6459595
46	273958 5868 234 190405 1.11 35.21 342 2 2 684 1368
58	279826 13601 1176 190234 1.281934122161 35.181930635188 340 0.099999704239 0.100012761219 33.999996274246 3.3999992558455
57	293427 13621 970 190585 1.241824481718 35.241820742075 341 0.099999703191 0.100012761603 34.099996021576 3.4099992053116
56	307048 9207 1176 190234 1.281934122161 35.181930635188 340 2 2 680 1360
55	316255 9219 970 190585 1.241824481718 35.241820742075 341 2 2 682 1364
54	325474 484 5236 189280 2 35 34 0 0 0 0
53	325958 689 5236 189280 2 35 34 0.023625 0.02625 0.889875 0.023297203125
52	326647 484 5236 189280 2 35 34 2 2 68 136
73	327131 11029 235 190406 1.11 35.21 342 -1.497958486039 1.4963276184872 -12.147155939986 531.13146886671
72	338160 11088 235 190406 1.11 35.21 342 -1.4632764891516 1.4357843215667 -12.76210826784 358.72912207668
71	349248 7236 235 190406 1.11 35.21 342 36.55 36.55 12500.1 456878.655
70	356484 10614 235 190406 1.11 35.21 342 145.05297775269 1096.2820094117 212681.43056929 158192284.84405
69	367098 10628 235 190406 1.11 35.21 342 26.49843618829 29.729217243037 9539.6205966834 266342.95881744
67	377726 11771 235 190406 1.11 35.21 342 -0.015485116000818 0.0115388110864 -0.12860909351538 0.016363274160797
66	389497 10607 235 190406 1.11 35.21 342 19.97046126762 20.035617369158 6838.6724880374 136746.98210538
68	400104 5868 235 190406 1.11 35.21 342 3 3 1026 3078
80	405972 13618 1040 190649 1.262751561773 35.262760822044 341 0.099999703188 0.100012763184 34.10000902149 3.4100018054561
79	419590 13614 976 190591 1.241824561773 35.241820822045 341 0.099999703188 0.100012761611 34.099996021491 3.4099992052946
78	433204 9218 1040 190649 1.262751561773 35.262760822044 341 3 3 1023 3069
77	442422 9223 976 190591 1.241824561773 35.241820822045 341 3 3 1023 3069
76	451645 484 5237 189281 2 35 34 0 0 0 0
75	452129 689 5237 189281 2 35 34 0.023625 0.02625 0.889875 0.023297203125
74	452818 484 5237 189281 2 35 34 3 3 102 306
117	453302 11029 237 190408 1.11 35.21 342 -1.497882336436 1.5 39.861733352556 510.17554805667
116	464331 11411 237 190408 1.11 35.21 342 -1.4541166680054 1.4827672004778 34.309527867141 347.85534704972
115	475742 7578 237 190408 1.11 35.21 342 36.55 36.55 12500.1 456878.655
114	483320 10960 237 190408 1.11 35.21 342 97.052977752686 1055.0894530835 196336.0408864 138708786.66398
113	494280 10963 237 190408 1.11 35.21 342 26.506193628665 31.160182344463 9609.335089222 270384.63925313
111	505243 11804 237 190408 1.11 35.21 342 -0.033954328728427 3.3585221959503 127.04873652741 361.72462548207
110	517047 10945 237 190408 1.11 35.21 342 19.974351194324 32.610741999512 7105.5540517991 149654.9817997
112	527992 6210 237 190408 1.11 35.21 342 5 5 1710 8550
124	534202 13930 1242 190306 1.287391362327 35.187400853029 340 0.099999702704 0.100012762958 34.000009251921 3.4000018515428
123	548132 13964 988 190603 1.241824721884 35.241820958978 341 0.099999701634 0.100012761619 34.099995998313 3.4099992006591
122	562096 9534 1242 190306 1.287391362327 35.187400853029 340 5 5 1700 8500
121	571630 9568 988 190603 1.241824721884 35.241820958978 341 5 5 1705 8525
120	581198 518 5239 189283 2 35 34 0 0 0 0
119	581716 723 5239 189283 2 35 34 0.023625 0.02625 0.889875 0.023297203125
118	582439 518 5239 189283 2 35 34 5 5 170 850
139	582957 11343 238 190409 1.11 35.21 342 -1.4890055531617 1.5 19.644422960027 487.33332211104
138	594300 11427 238 190409 1.11 35.21 342 -1.4486611853673 1.4384336217443 15.069902433488 328.09552441465
137	605727 7578 238 190409 1.11 35.21 342 36.55 36.55 12500.1 456878.655
136	613305 10957 238 190409 1.11 35.21 342 73.052977752686 1027.980534494 188095.15697592 129415661.39917
135	624262 10960 238 190409 1.11 35.21 342 26.512166450599 29.712970489929 9577.5739132482 268484.31737276
133	635222 11924 238 190409 1.11 35.21 342 -0.018947290086018 1.9035586545757 31.418080695201 43.653042674322
132	647146 10951 238 190409 1.11 35.21 342 19.987380060362 23.070637809614 6872.2486869626 138151.81437097
134	658097 6210 238 190409 1.11 35.21 342 6 6 2052 12312
146	664307 13967 1106 190715 1.266713801939 35.266710049409 341 0.099999702267 0.100012761861 34.099996008689 3.4099992027343
145	678274 13971 994 190609 1.241824801939 35.241821049596 341 0.099999702272 0.100012761619 34.099996008876 3.4099992027716
144	692245 9565 1106 190715 1.266713801939 35.266710049409 341 6 6 2046 12276
143	701810 9565 994 190609 1.241824801939 35.241821049596 341 6 6 2046 12276
142	711375 518 5240 189284 2 35 34 0 0 0 0
141	711893 723 5240 189284 2 35 34 0.023625 0.02625 0.889875 0.023297203125
140	712616 518 5240 189284 2 35 34 6 6 204 1224
161	713134 11296 239 190410 1.11 35.21 342 -1.4963545123757 1.5 7.1689984336342 503.83208532987
160	724430 11439 239 190410 1.11 35.21 342 -1.4519455799455 1.4347156548926 3.4680473312665 334.32271846588
159	735869 7578 239 190410 1.11 35.21 342 36.55 36.55 12500.1 456878.655
158	743447 10964 239 190410 1.11 35.21 342 49.052977752686 1002.3066774205 179870.70254713 120551590.90997
157	754411 10958 239 190410 1.11 35.21 342 26.505245266507 29.717530243215 9560.431122559 267498.93290755
155	765369 11892 239 190410 1.11 35.21 342 -0.031834543633973 1.1415096391614 16.992091664814 13.938025838957
154	777261 10940 239 190410 1.11 35.21 342 19.977402936061 21.650866179515 6856.1115729761 137461.03827041
156	788201 6210 239 190410 1.11 35.21 342 7 7 2394 16758
168	794411 13948 1308 190360 1.289468522438 35.189465028787 340 0.099999703716 0.100012761288 33.999996267568 3.3999992545099
167	808359 13965 1000 190615 1.241824881995 35.241821135351 341 0.099999702656 0.100012761613 34.099996014575 3.4099992039114
166	822324 9555 1308 190360 1.289468522438 35.189465028787 340 7 7 2380 16660
165	831879 9568 1000 190615 1.241824881995 35.241821135351 341 7 7 2387 16709
164	841447 518 5241 189285 2 35 34 0 0 0 0
163	841965 723 5241 189285 2 35 34 0.023625 0.02625 0.889875 0.023297203125
162	842688 518 5241 189285 2 35 34 7 7 238 1666
88	843206 10618 236 190755 1.11 35.28 343 0 20.053884475238 6505.229920945 127338.66690274
89	853824 11563 236 190755 1.11 35.28 343 -7.5902228191787 0.025074507882596 -204.85411937826 1075.022168333
90	865387 5886 236 190755 1.11 35.28 343 4 4 1372 5488
91	871273 10665 236 190755 1.11 35.28 343 26.502968537197 34.085160902396 9771.0972752276 279479.66967354
92	881938 10644 236 190755 1.11 35.28 343 121.05297775269 1094.1417310414 205906.29020974 150085856.09901
93	892582 7258 236 190755 1.11 35.28 343 36.55 36.55 12536.65 458214.5575
94	899840 11092 236 190755 1.11 35.28 343 -1.4604041392115 2.4999999999999 63.939880800729 462.10945372684
95	910932 11055 236 190755 1.11 35.28 343 -1.4916742932441 5.9161079906287 115.19458113513 1035.2453583678
96	921987 484 5238 189282 2 35 34 4 4 136 544
97	922471 689 5238 189282 2 35 34 0.023625 0.02625 0.889875 0.023297203125
98	923160 484 5238 189282 2 35 34 0 0 0 0
99	923644 9221 982 190597 1.241824641829 35.241820836382 341 4 4 1364 5456
100	932865 9558 904 190513 1.240527161496 35.240536356539 341 4 4 1364 5456
101	942423 13964 982 190597 1.241824641829 35.241820836382 341 0.099999700682 0.100012761623 34.099995955772 3.4099991921509
102	956387 13962 904 190513 1.240527161496 35.240536356539 341 0.099999700683 0.100012763147 34.100008956262 3.410001792411
