file 1032263 1512141394                                         
version 2
run SinusoidalSpeedInjectionAttack-5-20171201-16:16:15-103877
attr CACCSpacing 20
attr attackAcc -30
attr attackPos 7
attr attackSpeed -50
attr attackStart 30
attr attacker 3
attr beaconInterval 0.1
attr configname SinusoidalSpeedInjectionAttack
attr controller 1
attr datetime 20171201-16:16:15
attr experiment SinusoidalSpeedInjectionAttack
attr fakeAcc "(3 == 4)"
attr fakePos "(3 == 2)"
attr fakeSpeed "(3 == 3)"
attr inifile omnetpp_5.ini
attr iterationvars "$attacker=3, $attackSpeed=-50, $attackPos=7, $attackAcc=-30, $leaderSpeed=50, $controller=1, $CACCSpacing=20, $sController=\"CACC\", $attackStart=30, $0=20, $1=0, $nCars=8, $platoonSize=8, $nLanes=1, $beaconInterval=0.1, $priority=2, $packetSize=200, $ploegH=0.5, $leaderHeadway=1.2, $fakeSpeed=(3 == 3), $fakeAcc=(3 == 4), $fakePos=(3 == 2)"
attr iterationvarsf attacker=3,attackSpeed=-50,attackPos=7,attackAcc=-30,leaderSpeed=50,controller=1,CACCSpacing=20,sController=CACC,attackStart=30,20,0,nCars=8,platoonSize=8,nLanes=1,beaconInterval=0.1,priority=2,packetSize=200,ploegH=0.5,leaderHeadway=1.2,fakeSpeed=(3_==_3),fakeAcc=(3_==_4),fakePos=(3_==_2)-
attr leaderHeadway 1.2
attr leaderSpeed 50
attr measurement "$attacker=3, $attackSpeed=-50, $attackPos=7, $attackAcc=-30, $leaderSpeed=50, $controller=1, $CACCSpacing=20, $sController=\"CACC\", $attackStart=30, $0=20, $1=0, $nCars=8, $platoonSize=8, $nLanes=1, $beaconInterval=0.1, $priority=2, $packetSize=200, $ploegH=0.5, $leaderHeadway=1.2, $fakeSpeed=(3 == 3), $fakeAcc=(3 == 4), $fakePos=(3 == 2)"
attr nCars 8
attr nLanes 1
attr network scenario
attr packetSize 200
attr platoonSize 8
attr ploegH 0.5
attr priority 2
attr processid 103877
attr repetition 0
attr replication #0
attr resultdir results
attr runnumber 5
attr sController "\"CACC\""
attr seedset 0
param **.coreDebug false
param **.debug false
param **.headway 0.1s
param **.numberOfCars 8
param **.numberOfCarsPerPlatoon 8
param **.numberOfLanes 1
param **.numericController 1
param **.traffic.nCars 8
param **.traffic.nLanes 1
param **.traffic.platoonInsertDistance 20m
param **.traffic.platoonInsertHeadway 0s
param **.traffic.platoonInsertSpeed 50kmph
param **.traffic.platoonInsertTime "1 s"
param **.traffic.platoonLeaderHeadway 1.2s
param **.traffic.platoonSize 8
param **.traffic.platooningVType "\"vtypeauto\""
param **.traffic_type "\"PlatoonsTrafficManager\""
param *.**.nic.mac1609_4.bitrate 6Mbps
param *.**.nic.mac1609_4.txPower 100mW
param *.**.nic.mac1609_4.useServiceChannel false
param *.**.nic.phy80211p.analogueModels "xmldoc(\"config.xml\")"
param *.**.nic.phy80211p.decider "xmldoc(\"config.xml\")"
param *.**.nic.phy80211p.maxTXPower 100mW
param *.**.nic.phy80211p.sensitivity -94dBm
param *.**.nic.phy80211p.thermalNoise -95dBm
param *.**.nic.phy80211p.usePropagationDelay true
param *.**.nic.phy80211p.useThermalNoise true
param *.annotations.draw false
param *.connectionManager.alpha 2.0
param *.connectionManager.carrierFrequency "5.890e9 Hz"
param *.connectionManager.pMax 100mW
param *.connectionManager.sat -94dBm
param *.connectionManager.sendDirect true
param *.manager.autoShutdown true
param *.manager.commandLine "\"sumo --remote-port $port --seed $seed --configuration-file $configFile\""
param *.manager.configFile "\"./sumocfg/freeway.sumo.cfg\""
param *.manager.host "\"localhost\""
param *.manager.margin 25
param *.manager.moduleDisplayString "\"\""
param *.manager.moduleName "\"node\""
param *.manager.moduleType "\"Car\""
param *.manager.updateInterval 0.01s
param *.node[*].appl.attackStart 30s
param *.node[*].appl.attackerType 3
param *.node[*].appl.simulationDuration "60 s"
param *.node[*].appl_type "\"SimplePlatooningApp\""
param *.node[*].helper.nCars 8
param *.node[*].helper.nLanes 1
param *.node[*].helper.platoonSize 8
param *.node[*].helper_type "\"PositionHelper\""
param *.node[*].mobility.x 0
param *.node[*].mobility.y 0
param *.node[*].mobility.z 1.895
param *.node[*].prot.attackStart 30s
param *.node[*].prot.attackerType 3
param *.node[*].prot.attackingNode 3
param *.node[*].prot.beaconingInterval 0.1s
param *.node[*].prot.fakeAcc "(3 == 4)"
param *.node[*].prot.fakePos "(3 == 2)"
param *.node[*].prot.fakeSpeed "(3 == 3)"
param *.node[*].prot.maliciousAcc "-30 mpss"
param *.node[*].prot.maliciousSpeed -50kmph
param *.node[*].prot.packetSize 200
param *.node[*].prot.priority 2
param *.node[*].prot.shiftX "7 m"
param *.node[*].prot.useControllerAcceleration true
param *.node[*].protocol_type "\"SimplePlatooningBeaconing\""
param *.node[*].scenario.accHeadway 0.1s
param *.node[*].scenario.caccC1 0.5
param *.node[*].scenario.caccOmegaN "0.2 Hz"
param *.node[*].scenario.caccSpacing 20m
param *.node[*].scenario.caccXi 1
param *.node[*].scenario.controller "\"CACC\""
param *.node[*].scenario.engineTau "0.5 s"
param *.node[*].scenario.leaderHeadway 1.2s
param *.node[*].scenario.leaderSpeed 50kmph
param *.node[*].scenario.ploegH 0.5s
param *.node[*].scenario.ploegKd 0.7
param *.node[*].scenario.ploegKp 0.2
param *.node[*].scenario.useRealisticEngine false
param *.node[*].scenario_type "\"SinusoidalScenario\""
param *.node[*].unicast.packetLossRate 0
param *.obstacles.debug false
param *.playgroundSizeX 65000m
param *.playgroundSizeY 25000m
param *.playgroundSizeZ 50m
param *.world.use2D false
param *.world.useTorus false

vector 0  scenario.node[0].appl  distance  ETV
vector 1  scenario.node[0].appl  relativeSpeed  ETV
vector 2  scenario.node[0].appl  nodeId  ETV
vector 6  scenario.node[0].appl  acceleration  ETV
vector 7  scenario.node[0].appl  controllerAcceleration  ETV
vector 3  scenario.node[0].appl  speed  ETV
vector 4  scenario.node[0].appl  posx  ETV
vector 5  scenario.node[0].appl  posy  ETV
vector 22  scenario.node[1].appl  distance  ETV
vector 23  scenario.node[1].appl  relativeSpeed  ETV
vector 24  scenario.node[1].appl  nodeId  ETV
vector 28  scenario.node[1].appl  acceleration  ETV
vector 29  scenario.node[1].appl  controllerAcceleration  ETV
vector 25  scenario.node[1].appl  speed  ETV
vector 26  scenario.node[1].appl  posx  ETV
vector 27  scenario.node[1].appl  posy  ETV
vector 44  scenario.node[2].appl  distance  ETV
vector 45  scenario.node[2].appl  relativeSpeed  ETV
vector 46  scenario.node[2].appl  nodeId  ETV
vector 50  scenario.node[2].appl  acceleration  ETV
vector 51  scenario.node[2].appl  controllerAcceleration  ETV
vector 47  scenario.node[2].appl  speed  ETV
vector 48  scenario.node[2].appl  posx  ETV
vector 49  scenario.node[2].appl  posy  ETV
vector 66  scenario.node[3].appl  distance  ETV
vector 67  scenario.node[3].appl  relativeSpeed  ETV
vector 68  scenario.node[3].appl  nodeId  ETV
vector 72  scenario.node[3].appl  acceleration  ETV
vector 73  scenario.node[3].appl  controllerAcceleration  ETV
vector 69  scenario.node[3].appl  speed  ETV
vector 70  scenario.node[3].appl  posx  ETV
vector 71  scenario.node[3].appl  posy  ETV
vector 88  scenario.node[4].appl  distance  ETV
vector 89  scenario.node[4].appl  relativeSpeed  ETV
vector 90  scenario.node[4].appl  nodeId  ETV
vector 94  scenario.node[4].appl  acceleration  ETV
vector 95  scenario.node[4].appl  controllerAcceleration  ETV
vector 91  scenario.node[4].appl  speed  ETV
vector 92  scenario.node[4].appl  posx  ETV
vector 93  scenario.node[4].appl  posy  ETV
vector 110  scenario.node[5].appl  distance  ETV
vector 111  scenario.node[5].appl  relativeSpeed  ETV
vector 112  scenario.node[5].appl  nodeId  ETV
vector 116  scenario.node[5].appl  acceleration  ETV
vector 117  scenario.node[5].appl  controllerAcceleration  ETV
vector 113  scenario.node[5].appl  speed  ETV
vector 114  scenario.node[5].appl  posx  ETV
vector 115  scenario.node[5].appl  posy  ETV
vector 132  scenario.node[6].appl  distance  ETV
vector 133  scenario.node[6].appl  relativeSpeed  ETV
vector 134  scenario.node[6].appl  nodeId  ETV
vector 138  scenario.node[6].appl  acceleration  ETV
vector 139  scenario.node[6].appl  controllerAcceleration  ETV
vector 135  scenario.node[6].appl  speed  ETV
vector 136  scenario.node[6].appl  posx  ETV
vector 137  scenario.node[6].appl  posy  ETV
vector 154  scenario.node[7].appl  distance  ETV
vector 155  scenario.node[7].appl  relativeSpeed  ETV
vector 156  scenario.node[7].appl  nodeId  ETV
vector 160  scenario.node[7].appl  acceleration  ETV
vector 161  scenario.node[7].appl  controllerAcceleration  ETV
vector 157  scenario.node[7].appl  speed  ETV
vector 158  scenario.node[7].appl  posx  ETV
vector 159  scenario.node[7].appl  posy  ETV
vector 80  scenario.node[3].prot  frontDelay  ETV
vector 78  scenario.node[3].prot  frontDelayId  ETV
vector 58  scenario.node[2].prot  frontDelay  ETV
vector 56  scenario.node[2].prot  frontDelayId  ETV
vector 168  scenario.node[7].prot  frontDelay  ETV
vector 166  scenario.node[7].prot  frontDelayId  ETV
vector 35  scenario.node[1].prot  leaderDelay  ETV
vector 33  scenario.node[1].prot  leaderDelayId  ETV
vector 36  scenario.node[1].prot  frontDelay  ETV
vector 34  scenario.node[1].prot  frontDelayId  ETV
vector 57  scenario.node[2].prot  leaderDelay  ETV
vector 55  scenario.node[2].prot  leaderDelayId  ETV
vector 79  scenario.node[3].prot  leaderDelay  ETV
vector 77  scenario.node[3].prot  leaderDelayId  ETV
vector 101  scenario.node[4].prot  leaderDelay  ETV
vector 99  scenario.node[4].prot  leaderDelayId  ETV
vector 123  scenario.node[5].prot  leaderDelay  ETV
vector 121  scenario.node[5].prot  leaderDelayId  ETV
vector 145  scenario.node[6].prot  leaderDelay  ETV
vector 143  scenario.node[6].prot  leaderDelayId  ETV
vector 167  scenario.node[7].prot  leaderDelay  ETV
vector 165  scenario.node[7].prot  leaderDelayId  ETV
vector 124  scenario.node[5].prot  frontDelay  ETV
vector 122  scenario.node[5].prot  frontDelayId  ETV
vector 102  scenario.node[4].prot  frontDelay  ETV
vector 100  scenario.node[4].prot  frontDelayId  ETV
vector 146  scenario.node[6].prot  frontDelay  ETV
vector 144  scenario.node[6].prot  frontDelayId  ETV
vector 8  scenario.node[0].prot  nodeId  ETV
vector 9  scenario.node[0].prot  busyTime  ETV
vector 10  scenario.node[0].prot  collisions  ETV
vector 30  scenario.node[1].prot  nodeId  ETV
vector 31  scenario.node[1].prot  busyTime  ETV
vector 32  scenario.node[1].prot  collisions  ETV
vector 52  scenario.node[2].prot  nodeId  ETV
vector 53  scenario.node[2].prot  busyTime  ETV
vector 54  scenario.node[2].prot  collisions  ETV
vector 74  scenario.node[3].prot  nodeId  ETV
vector 75  scenario.node[3].prot  busyTime  ETV
vector 76  scenario.node[3].prot  collisions  ETV
vector 96  scenario.node[4].prot  nodeId  ETV
vector 97  scenario.node[4].prot  busyTime  ETV
vector 98  scenario.node[4].prot  collisions  ETV
vector 118  scenario.node[5].prot  nodeId  ETV
vector 119  scenario.node[5].prot  busyTime  ETV
vector 120  scenario.node[5].prot  collisions  ETV
vector 140  scenario.node[6].prot  nodeId  ETV
vector 141  scenario.node[6].prot  busyTime  ETV
vector 142  scenario.node[6].prot  collisions  ETV
vector 162  scenario.node[7].prot  nodeId  ETV
vector 163  scenario.node[7].prot  busyTime  ETV
vector 164  scenario.node[7].prot  collisions  ETV
7	11087 8656 232 202673 1.11 37.41 364 -1.5 1.5 15.01384533534 583.30011270312
6	19743 11421 232 202673 1.11 37.41 364 -1.472274679513 1.4513430531444 12.497880811088 397.21579972475
5	31164 7356 232 202673 1.11 37.41 364 36.55 36.55 13304.2 486268.51
4	38520 10962 232 202673 1.11 37.41 364 202.82875404345 710.67461162636 166764.14082203 84260519.544744
3	49482 10953 232 202673 1.11 37.41 364 12.59908680102 15.853603639796 5092.7808814378 71523.163702403
1	60435 5900 232 202673 1.11 37.41 364 0 0 0 0
0	66335 6264 232 202673 1.11 37.41 364 -1 -1 -364 364
2	72599 5900 232 202673 1.11 37.41 364 0 0 0 0
10	78499 513 5102 200302 2 37 36 0 0 0 0
9	79012 694 5102 200302 2 37 36 0.022969 0.02625 0.941719 0.024644762461
8	79706 477 5102 200302 2 37 36 0 0 0 0
29	80183 10859 233 202674 1.11 37.41 364 -1.5112642289108 1.512070130455 15.461302946909 582.69173285451
28	91042 11779 233 202674 1.11 37.41 364 -1.482030289071 1.4492283742985 12.085143313881 397.1833365036
27	102821 7720 233 202674 1.11 37.41 364 36.55 36.55 13304.2 486268.51
26	110541 11328 233 202674 1.11 37.41 364 178.82875404358 686.52288566654 158013.85287293 76451193.04967
25	121869 11336 233 202674 1.11 37.41 364 12.596070946852 15.852538032929 5091.248614267 71480.253622182
23	133205 12339 233 202674 1.11 37.41 364 -0.07106481105334 0.077026299357145 1.4072883627028 1.0317630446393
22	145544 11322 233 202674 1.11 37.41 364 19.939712269083 20.150808169869 7294.2573037591 146171.92413658
24	156866 6264 233 202674 1.11 37.41 364 1 1 364 364
36	163130 14460 1032 202360 1.254913282269 37.354892166765 362 0.099909240509 0.100091242722 36.199992126046 3.6199990395002
35	177590 14460 1032 202360 1.254913282269 37.354892166765 362 0.099909240509 0.100091242722 36.199992126046 3.6199990395002
34	192050 9820 1032 202360 1.254913282269 37.354892166765 362 1 1 362 362
33	201870 9820 1032 202360 1.254913282269 37.354892166765 362 1 1 362 362
32	211690 513 5103 200303 2 37 36 0 0 0 0
31	212203 730 5103 200303 2 37 36 0.022969 0.02625 0.941719 0.024644762461
30	212933 513 5103 200303 2 37 36 1 1 36 36
51	213446 11724 234 202675 1.11 37.41 364 -1.4951715933761 1.4969403168635 15.692708453412 570.32365923227
50	225170 11782 234 202675 1.11 37.41 364 -1.4749478834394 1.4483793291777 11.865020163457 395.12296116098
49	236952 7720 234 202675 1.11 37.41 364 36.55 36.55 13304.2 486268.51
48	244672 11314 234 202675 1.11 37.41 364 154.82875404358 662.51806056828 149282.77253384 69082015.18605
47	255986 11317 234 202675 1.11 37.41 364 12.599772593804 15.849534689697 5091.1913004291 71476.93828944
45	267303 12335 234 202675 1.11 37.41 364 -0.042015735458428 0.035321629897977 -0.063537595240339 0.24492695001792
44	279638 11306 234 202675 1.11 37.41 364 19.922416030572 20.070368602191 7275.079192816 145403.66551495
46	290944 6264 234 202675 1.11 37.41 364 2 2 728 1456
58	297208 14457 900 202779 1.22965940166 37.429665121057 363 0.099987240007 0.100001110242 36.300005960947 3.6300011935114
57	311665 14447 1038 202366 1.254913362325 37.35489224683 362 0.099909240517 0.100091242737 36.199992126055 3.619999039502
56	326112 9817 900 202779 1.22965940166 37.429665121057 363 2 2 726 1452
55	335929 9814 1038 202366 1.254913362325 37.35489224683 362 2 2 724 1448
54	345743 513 5104 200304 2 37 36 0 0 0 0
53	346256 730 5104 200304 2 37 36 0.022969 0.02625 0.941719 0.024644762461
52	346986 513 5104 200304 2 37 36 2 2 72 144
73	347499 11717 235 202676 1.11 37.41 364 -1.4890347545755 1.489280983621 15.525438878571 555.23569183286
72	359216 11783 235 202676 1.11 37.41 364 -1.4633940821509 1.4358250214173 11.615525370846 388.14270589238
71	370999 7720 235 202676 1.11 37.41 364 36.55 36.55 13304.2 486268.51
70	378719 11321 235 202676 1.11 37.41 364 130.82875404358 638.50592980208 140547.78391439 62127492.421104
69	390040 11319 235 202676 1.11 37.41 364 12.612563444857 15.839370548536 5091.0610998238 71468.843407733
67	401359 12488 235 202676 1.11 37.41 364 -0.022576862845417 0.018794908418132 0.0115504037012 0.045391098941014
66	413847 11290 235 202676 1.11 37.41 364 19.965709014146 20.045084661091 7278.9860154374 145559.56775578
68	425137 6264 235 202676 1.11 37.41 364 3 3 1092 3276
80	431401 14487 832 202717 1.213906321605 37.41389904101 363 0.099987241264 0.100001110231 36.299992960955 3.6299985936585
79	445888 14413 1044 202372 1.25491344238 37.354892326921 362 0.099909240518 0.100091242747 36.199992126091 3.6199990395092
78	460301 9838 832 202717 1.213906321605 37.41389904101 363 3 3 1089 3267
77	470139 9777 1044 202372 1.25491344238 37.354892326921 362 3 3 1086 3258
76	479916 513 5105 200305 2 37 36 0 0 0 0
75	480429 730 5105 200305 2 37 36 0.022968 0.02625 0.941718 0.024644716524
74	481159 513 5105 200305 2 37 36 3 3 108 324
95	481672 11721 236 202677 1.11 37.41 364 -7.000658257516 1.4819210742592 -177.16580143397 1192.0770905241
94	493393 11519 236 202677 1.11 37.41 364 -4.9131456091212 1.4260514181192 -121.84042122996 820.86285805465
93	504912 7720 236 202677 1.11 37.41 364 36.55 36.55 13304.2 486268.51
92	512632 11328 236 202677 1.11 37.41 364 106.82875404358 534.3636660928 129311.24417757 52791602.679503
91	523960 11097 236 202677 1.11 37.41 364 0 15.82734885459 4284.9691617388 59055.537729003
89	535057 12307 236 202677 1.11 37.41 364 -0.013924731503725 14.832228009786 805.97578283127 10073.53189261
88	547364 11301 236 202677 1.11 37.41 364 19.984401978425 99.8746659351 9764.4178974063 377676.11928865
90	558665 6264 236 202677 1.11 37.41 364 4 4 1456 5824
102	564929 14810 1246 202587 1.303564162878 37.403556496204 362 0.09998724155 0.100001106553 36.199992574876 3.6199985164454
101	579739 14803 1050 202378 1.254913522436 37.354892671625 362 0.099909240516 0.100091242749 36.199992390739 3.619999092439
100	594542 10177 1246 202587 1.303564162878 37.403556496204 362 4 4 1448 5792
99	604719 9814 1050 202378 1.254913522436 37.354892671625 362 4 4 1448 5792
98	614533 513 5106 200306 2 37 36 0 0 0 0
97	615046 730 5106 200306 2 37 36 0.022969 0.02625 0.941719 0.024644762461
96	615776 513 5106 200306 2 37 36 4 4 144 576
117	616289 12095 237 202678 1.11 37.41 364 -4.0099902438585 1.5924410650389 -106.47937322853 826.24521982768
116	628384 12171 237 202678 1.11 37.41 364 -3.5187429963498 1.4967509712688 -110.07908436693 634.65127431833
115	640555 8084 237 202678 1.11 37.41 364 36.55 36.55 13304.2 486268.51
114	648639 11685 237 202678 1.11 37.41 364 82.828754043579 528.72780062879 121381.79150882 47627345.75068
113	660324 11692 237 202678 1.11 37.41 364 0.54058262182377 15.819490735852 4469.0213507598 60750.098492348
111	672016 12612 237 202678 1.11 37.41 364 -5.7286721465218 0.039397562222875 -182.83378480866 713.51632312477
110	684628 11669 237 202678 1.11 37.41 364 1.6601024317779 20.032942247066 6477.1337131798 125443.82307659
112	696297 6628 237 202678 1.11 37.41 364 5 5 1820 9100
124	702925 14798 1172 202494 1.265750082823 37.36575482312 362 0.099987240401 0.100001097241 36.200004981847 3.620000997686
123	717723 14801 1056 202384 1.254913602491 37.354892690666 362 0.09990924051 0.100091242743 36.199992329725 3.6199990802361
122	732524 10174 1172 202494 1.265750082823 37.36575482312 362 5 5 1810 9050
121	742698 10174 1056 202384 1.254913602491 37.354892690666 362 5 5 1810 9050
120	752872 549 5107 200307 2 37 36 0 0 0 0
119	753421 766 5107 200307 2 37 36 0.022968 0.02625 0.941718 0.024644716524
118	754187 549 5107 200307 2 37 36 5 5 180 900
161	754736 12120 239 202680 1.11 37.41 364 -2.9174905233176 1.4938221829044 -65.677468978655 620.75963569113
160	766856 12179 239 202680 1.11 37.41 364 -2.739076925632 1.430166978778 -65.878644244589 446.26137153679
159	779035 8084 239 202680 1.11 37.41 364 36.55 36.55 13304.2 486268.51
158	787119 11690 239 202680 1.11 37.41 364 34.82875213623 514.8437520473 104961.13114662 37841294.270275
157	798809 11683 239 202680 1.11 37.41 364 6.6278870527534 15.829356398145 4811.7332778683 65278.273938601
155	810492 12843 239 202680 1.11 37.41 364 -2.7643585658285 0.010778958171706 -141.90322838988 331.89655026397
154	823335 11671 239 202680 1.11 37.41 364 5.846722889321 20.027111120484 6874.7102926353 133209.2202642
156	835006 6628 239 202680 1.11 37.41 364 7 7 2548 17836
168	841634 14806 975 202309 1.254434801937 37.354426500856 362 0.099987240242 0.100001072886 36.199991940469 3.6199983895572
167	856440 14815 1068 202396 1.254913762602 37.354892737872 362 0.099909240517 0.100091242748 36.19999221682 3.6199990576551
166	871255 10184 975 202309 1.254434801937 37.354426500856 362 7 7 2534 17738
165	881439 10180 1068 202396 1.254913762602 37.354892737872 362 7 7 2534 17738
164	891619 549 5109 200309 2 37 36 0 0 0 0
163	892168 766 5109 200309 2 37 36 0.022969 0.02625 0.941719 0.024644762461
162	892934 549 5109 200309 2 37 36 7 7 252 1764
132	893483 11696 238 202821 1.11 37.45 365 0 20.011817445354 6640.8043081016 128883.60152999
133	905179 12697 238 202821 1.11 37.45 365 -3.888465895382 0.022264284251419 -200.96951365388 632.38722889368
134	917876 6647 238 202821 1.11 37.45 365 6 6 2190 13140
135	924523 11715 238 202821 1.11 37.45 365 3.9375747579889 15.824750849195 4673.9678486259 63048.562486735
136	936238 11710 238 202821 1.11 37.45 365 58.828754043579 524.84559291414 113813.83125255 42939406.556477
137	947948 8107 238 202821 1.11 37.45 365 36.55 36.55 13340.75 487604.4125
138	956055 12209 238 202821 1.11 37.45 365 -3.108406207809 1.4264901470778 -88.299043230795 505.16006326875
139	968264 12145 238 202821 1.11 37.45 365 -3.422890401597 1.4811501997056 -86.479919585888 662.49921973301
140	980409 549 5108 200308 2 37 36 6 6 216 1296
141	980958 766 5108 200308 2 37 36 0.022969 0.02625 0.941719 0.024644762461
142	981724 549 5108 200308 2 37 36 0 0 0 0
143	982273 10176 1062 202390 1.254913682546 37.354892704721 362 6 6 2172 13032
144	992449 10192 1312 202635 1.305160322989 37.405165528736 362 6 6 2172 13032
145	1002641 14806 1062 202390 1.254913682546 37.354892704721 362 0.099909240511 0.100091242741 36.199992263725 3.6199990670361
146	1017447 14816 1312 202635 1.305160322989 37.405165528736 362 0.099987240083 0.100001105422 36.200005447297 3.6200010907788
