file 896596 1512142676                                          
version 2
run SinusoidalSpeedInjectionAttack-260-20171201-16:37:39-31030
attr CACCSpacing 5
attr attackAcc -30
attr attackPos 7
attr attackSpeed 150
attr attackStart 30
attr attacker 3
attr beaconInterval 0.1
attr configname SinusoidalSpeedInjectionAttack
attr controller 1
attr datetime 20171201-16:37:39
attr experiment SinusoidalSpeedInjectionAttack
attr fakeAcc "(3 == 4)"
attr fakePos "(3 == 2)"
attr fakeSpeed "(3 == 3)"
attr inifile omnetpp_260.ini
attr iterationvars "$attacker=3, $attackSpeed=150, $attackPos=7, $attackAcc=-30, $leaderSpeed=100, $controller=1, $CACCSpacing=5, $sController=\"CACC\", $attackStart=30, $0=5, $1=0, $nCars=8, $platoonSize=8, $nLanes=1, $beaconInterval=0.1, $priority=2, $packetSize=200, $ploegH=0.5, $leaderHeadway=1.2, $fakeSpeed=(3 == 3), $fakeAcc=(3 == 4), $fakePos=(3 == 2)"
attr iterationvarsf attacker=3,attackSpeed=150,attackPos=7,attackAcc=-30,leaderSpeed=100,controller=1,CACCSpacing=5,sController=CACC,attackStart=30,5,0,nCars=8,platoonSize=8,nLanes=1,beaconInterval=0.1,priority=2,packetSize=200,ploegH=0.5,leaderHeadway=1.2,fakeSpeed=(3_==_3),fakeAcc=(3_==_4),fakePos=(3_==_2)-
attr leaderHeadway 1.2
attr leaderSpeed 100
attr measurement "$attacker=3, $attackSpeed=150, $attackPos=7, $attackAcc=-30, $leaderSpeed=100, $controller=1, $CACCSpacing=5, $sController=\"CACC\", $attackStart=30, $0=5, $1=0, $nCars=8, $platoonSize=8, $nLanes=1, $beaconInterval=0.1, $priority=2, $packetSize=200, $ploegH=0.5, $leaderHeadway=1.2, $fakeSpeed=(3 == 3), $fakeAcc=(3 == 4), $fakePos=(3 == 2)"
attr nCars 8
attr nLanes 1
attr network scenario
attr packetSize 200
attr platoonSize 8
attr ploegH 0.5
attr priority 2
attr processid 31030
attr repetition 0
attr replication #0
attr resultdir results
attr runnumber 260
attr sController "\"CACC\""
attr seedset 0
param **.coreDebug false
param **.debug false
param **.headway 0.1s
param **.numberOfCars 8
param **.numberOfCarsPerPlatoon 8
param **.numberOfLanes 1
param **.numericController 1
param **.traffic.nCars 8
param **.traffic.nLanes 1
param **.traffic.platoonInsertDistance 5m
param **.traffic.platoonInsertHeadway 0s
param **.traffic.platoonInsertSpeed 100kmph
param **.traffic.platoonInsertTime "1 s"
param **.traffic.platoonLeaderHeadway 1.2s
param **.traffic.platoonSize 8
param **.traffic.platooningVType "\"vtypeauto\""
param **.traffic_type "\"PlatoonsTrafficManager\""
param *.**.nic.mac1609_4.bitrate 6Mbps
param *.**.nic.mac1609_4.txPower 100mW
param *.**.nic.mac1609_4.useServiceChannel false
param *.**.nic.phy80211p.analogueModels "xmldoc(\"config.xml\")"
param *.**.nic.phy80211p.decider "xmldoc(\"config.xml\")"
param *.**.nic.phy80211p.maxTXPower 100mW
param *.**.nic.phy80211p.sensitivity -94dBm
param *.**.nic.phy80211p.thermalNoise -95dBm
param *.**.nic.phy80211p.usePropagationDelay true
param *.**.nic.phy80211p.useThermalNoise true
param *.annotations.draw false
param *.connectionManager.alpha 2.0
param *.connectionManager.carrierFrequency "5.890e9 Hz"
param *.connectionManager.pMax 100mW
param *.connectionManager.sat -94dBm
param *.connectionManager.sendDirect true
param *.manager.autoShutdown true
param *.manager.commandLine "\"sumo --remote-port $port --seed $seed --configuration-file $configFile\""
param *.manager.configFile "\"./sumocfg/freeway.sumo.cfg\""
param *.manager.host "\"localhost\""
param *.manager.margin 25
param *.manager.moduleDisplayString "\"\""
param *.manager.moduleName "\"node\""
param *.manager.moduleType "\"Car\""
param *.manager.updateInterval 0.01s
param *.node[*].appl.attackStart 30s
param *.node[*].appl.attackerType 3
param *.node[*].appl.simulationDuration "60 s"
param *.node[*].appl_type "\"SimplePlatooningApp\""
param *.node[*].helper.nCars 8
param *.node[*].helper.nLanes 1
param *.node[*].helper.platoonSize 8
param *.node[*].helper_type "\"PositionHelper\""
param *.node[*].mobility.x 0
param *.node[*].mobility.y 0
param *.node[*].mobility.z 1.895
param *.node[*].prot.attackStart 30s
param *.node[*].prot.attackerType 3
param *.node[*].prot.attackingNode 3
param *.node[*].prot.beaconingInterval 0.1s
param *.node[*].prot.fakeAcc "(3 == 4)"
param *.node[*].prot.fakePos "(3 == 2)"
param *.node[*].prot.fakeSpeed "(3 == 3)"
param *.node[*].prot.maliciousAcc "-30 mpss"
param *.node[*].prot.maliciousSpeed 150kmph
param *.node[*].prot.packetSize 200
param *.node[*].prot.priority 2
param *.node[*].prot.shiftX "7 m"
param *.node[*].prot.useControllerAcceleration true
param *.node[*].protocol_type "\"SimplePlatooningBeaconing\""
param *.node[*].scenario.accHeadway 0.1s
param *.node[*].scenario.caccC1 0.5
param *.node[*].scenario.caccOmegaN "0.2 Hz"
param *.node[*].scenario.caccSpacing 5m
param *.node[*].scenario.caccXi 1
param *.node[*].scenario.controller "\"CACC\""
param *.node[*].scenario.engineTau "0.5 s"
param *.node[*].scenario.leaderHeadway 1.2s
param *.node[*].scenario.leaderSpeed 100kmph
param *.node[*].scenario.ploegH 0.5s
param *.node[*].scenario.ploegKd 0.7
param *.node[*].scenario.ploegKp 0.2
param *.node[*].scenario.useRealisticEngine false
param *.node[*].scenario_type "\"SinusoidalScenario\""
param *.node[*].unicast.packetLossRate 0
param *.obstacles.debug false
param *.playgroundSizeX 65000m
param *.playgroundSizeY 25000m
param *.playgroundSizeZ 50m
param *.world.use2D false
param *.world.useTorus false

vector 0  scenario.node[0].appl  distance  ETV
vector 1  scenario.node[0].appl  relativeSpeed  ETV
vector 2  scenario.node[0].appl  nodeId  ETV
vector 6  scenario.node[0].appl  acceleration  ETV
vector 7  scenario.node[0].appl  controllerAcceleration  ETV
vector 3  scenario.node[0].appl  speed  ETV
vector 4  scenario.node[0].appl  posx  ETV
vector 5  scenario.node[0].appl  posy  ETV
vector 22  scenario.node[1].appl  distance  ETV
vector 23  scenario.node[1].appl  relativeSpeed  ETV
vector 24  scenario.node[1].appl  nodeId  ETV
vector 28  scenario.node[1].appl  acceleration  ETV
vector 29  scenario.node[1].appl  controllerAcceleration  ETV
vector 25  scenario.node[1].appl  speed  ETV
vector 26  scenario.node[1].appl  posx  ETV
vector 27  scenario.node[1].appl  posy  ETV
vector 44  scenario.node[2].appl  distance  ETV
vector 45  scenario.node[2].appl  relativeSpeed  ETV
vector 46  scenario.node[2].appl  nodeId  ETV
vector 50  scenario.node[2].appl  acceleration  ETV
vector 51  scenario.node[2].appl  controllerAcceleration  ETV
vector 47  scenario.node[2].appl  speed  ETV
vector 48  scenario.node[2].appl  posx  ETV
vector 49  scenario.node[2].appl  posy  ETV
vector 66  scenario.node[3].appl  distance  ETV
vector 67  scenario.node[3].appl  relativeSpeed  ETV
vector 68  scenario.node[3].appl  nodeId  ETV
vector 72  scenario.node[3].appl  acceleration  ETV
vector 73  scenario.node[3].appl  controllerAcceleration  ETV
vector 69  scenario.node[3].appl  speed  ETV
vector 70  scenario.node[3].appl  posx  ETV
vector 71  scenario.node[3].appl  posy  ETV
vector 88  scenario.node[4].appl  distance  ETV
vector 89  scenario.node[4].appl  relativeSpeed  ETV
vector 90  scenario.node[4].appl  nodeId  ETV
vector 94  scenario.node[4].appl  acceleration  ETV
vector 95  scenario.node[4].appl  controllerAcceleration  ETV
vector 91  scenario.node[4].appl  speed  ETV
vector 92  scenario.node[4].appl  posx  ETV
vector 93  scenario.node[4].appl  posy  ETV
vector 110  scenario.node[5].appl  distance  ETV
vector 111  scenario.node[5].appl  relativeSpeed  ETV
vector 112  scenario.node[5].appl  nodeId  ETV
vector 116  scenario.node[5].appl  acceleration  ETV
vector 117  scenario.node[5].appl  controllerAcceleration  ETV
vector 113  scenario.node[5].appl  speed  ETV
vector 114  scenario.node[5].appl  posx  ETV
vector 115  scenario.node[5].appl  posy  ETV
vector 132  scenario.node[6].appl  distance  ETV
vector 133  scenario.node[6].appl  relativeSpeed  ETV
vector 134  scenario.node[6].appl  nodeId  ETV
vector 138  scenario.node[6].appl  acceleration  ETV
vector 139  scenario.node[6].appl  controllerAcceleration  ETV
vector 135  scenario.node[6].appl  speed  ETV
vector 136  scenario.node[6].appl  posx  ETV
vector 137  scenario.node[6].appl  posy  ETV
vector 154  scenario.node[7].appl  distance  ETV
vector 155  scenario.node[7].appl  relativeSpeed  ETV
vector 156  scenario.node[7].appl  nodeId  ETV
vector 160  scenario.node[7].appl  acceleration  ETV
vector 161  scenario.node[7].appl  controllerAcceleration  ETV
vector 157  scenario.node[7].appl  speed  ETV
vector 158  scenario.node[7].appl  posx  ETV
vector 159  scenario.node[7].appl  posy  ETV
vector 80  scenario.node[3].prot  frontDelay  ETV
vector 78  scenario.node[3].prot  frontDelayId  ETV
vector 58  scenario.node[2].prot  frontDelay  ETV
vector 56  scenario.node[2].prot  frontDelayId  ETV
vector 168  scenario.node[7].prot  frontDelay  ETV
vector 166  scenario.node[7].prot  frontDelayId  ETV
vector 35  scenario.node[1].prot  leaderDelay  ETV
vector 33  scenario.node[1].prot  leaderDelayId  ETV
vector 36  scenario.node[1].prot  frontDelay  ETV
vector 34  scenario.node[1].prot  frontDelayId  ETV
vector 57  scenario.node[2].prot  leaderDelay  ETV
vector 55  scenario.node[2].prot  leaderDelayId  ETV
vector 79  scenario.node[3].prot  leaderDelay  ETV
vector 77  scenario.node[3].prot  leaderDelayId  ETV
vector 101  scenario.node[4].prot  leaderDelay  ETV
vector 99  scenario.node[4].prot  leaderDelayId  ETV
vector 123  scenario.node[5].prot  leaderDelay  ETV
vector 121  scenario.node[5].prot  leaderDelayId  ETV
vector 145  scenario.node[6].prot  leaderDelay  ETV
vector 143  scenario.node[6].prot  leaderDelayId  ETV
vector 167  scenario.node[7].prot  leaderDelay  ETV
vector 165  scenario.node[7].prot  leaderDelayId  ETV
vector 124  scenario.node[5].prot  frontDelay  ETV
vector 122  scenario.node[5].prot  frontDelayId  ETV
vector 102  scenario.node[4].prot  frontDelay  ETV
vector 100  scenario.node[4].prot  frontDelayId  ETV
vector 146  scenario.node[6].prot  frontDelay  ETV
vector 144  scenario.node[6].prot  frontDelayId  ETV
vector 8  scenario.node[0].prot  nodeId  ETV
vector 9  scenario.node[0].prot  busyTime  ETV
vector 10  scenario.node[0].prot  collisions  ETV
vector 30  scenario.node[1].prot  nodeId  ETV
vector 31  scenario.node[1].prot  busyTime  ETV
vector 32  scenario.node[1].prot  collisions  ETV
vector 52  scenario.node[2].prot  nodeId  ETV
vector 53  scenario.node[2].prot  busyTime  ETV
vector 54  scenario.node[2].prot  collisions  ETV
vector 74  scenario.node[3].prot  nodeId  ETV
vector 75  scenario.node[3].prot  busyTime  ETV
vector 76  scenario.node[3].prot  collisions  ETV
vector 96  scenario.node[4].prot  nodeId  ETV
vector 97  scenario.node[4].prot  busyTime  ETV
vector 98  scenario.node[4].prot  collisions  ETV
vector 118  scenario.node[5].prot  nodeId  ETV
vector 119  scenario.node[5].prot  busyTime  ETV
vector 120  scenario.node[5].prot  collisions  ETV
vector 140  scenario.node[6].prot  nodeId  ETV
vector 141  scenario.node[6].prot  busyTime  ETV
vector 142  scenario.node[6].prot  collisions  ETV
vector 162  scenario.node[7].prot  nodeId  ETV
vector 163  scenario.node[7].prot  busyTime  ETV
vector 164  scenario.node[7].prot  collisions  ETV
7	11088 7552 232 175897 1.11 32.61 316 -1.5 1.5 12.246018686734 496.05984025099
6	18640 9910 232 175897 1.11 32.61 316 -1.4722746794938 1.451340770512 12.900435946548 335.54468553316
5	28550 6348 232 175897 1.11 32.61 316 36.55 36.55 11549.8 422145.19
4	34898 9473 232 175897 1.11 32.61 316 99.217642974587 978.15106558518 170586.77277345 112553213.94263
3	44371 9474 232 175897 1.11 32.61 316 26.488037261118 29.742492528104 8817.5638264318 246275.40844574
1	53845 5084 232 175897 1.11 32.61 316 0 0 0 0
0	58929 5400 232 175897 1.11 32.61 316 -1 -1 -316 316
2	64329 5084 232 175897 1.11 32.61 316 0 0 0 0
10	69413 438 5102 172412 2 32 31 0 0 0 0
9	69851 594 5102 172412 2 32 31 0.022969 0.02625 0.810469 0.021199449961
8	70445 407 5102 172412 2 32 31 0 0 0 0
29	70852 10153 233 175898 1.11 32.61 316 -1.51297165279 1.51296484251 13.402204051912 496.81231126116
28	81005 10207 233 175898 1.11 32.61 316 -1.4840815553274 1.4595456977474 12.941143064528 337.74232803829
27	91212 6664 233 175898 1.11 32.61 316 36.55 36.55 11549.8 422145.19
26	97876 9785 233 175898 1.11 32.61 316 90.217642974854 969.07206421061 167741.77390952 109508140.98356
25	107661 9792 233 175898 1.11 32.61 316 26.483797963405 29.74860430989 8816.7741308429 246232.51761718
23	117453 10691 233 175898 1.11 32.61 316 -0.074693814310276 0.072861104416422 0.66069122943485 0.88591058777802
22	128144 9776 233 175898 1.11 32.61 316 4.9147225894276 5.1113154328265 1580.983070021 7910.7018694678
24	137920 5400 233 175898 1.11 32.61 316 1 1 316 316
36	143320 12567 1032 176141 1.254911230853 32.654858843644 315 0.099907839697 0.100089841893 31.499959453373 3.1499924154291
35	155887 12567 1032 176141 1.254911230853 32.654858843644 315 0.099907839697 0.100089841893 31.499959453373 3.1499924154291
34	168454 8506 1032 176141 1.254911230853 32.654858843644 315 1 1 315 315
33	176960 8506 1032 176141 1.254911230853 32.654858843644 315 1 1 315 315
32	185466 438 5103 172413 2 32 31 0 0 0 0
31	185904 625 5103 172413 2 32 31 0.022969 0.02625 0.810469 0.021199449961
30	186529 438 5103 172413 2 32 31 1 1 31 31
51	186967 10152 234 175899 1.11 32.61 316 -1.4952754263723 1.4970992082337 13.862931030067 482.9654277654
50	197119 10225 234 175899 1.11 32.61 316 -1.4761121300058 1.4494360548792 12.826836490963 334.38688119644
49	207344 6664 234 175899 1.11 32.61 316 36.55 36.55 11549.8 422145.19
48	214008 9793 234 175899 1.11 32.61 316 81.217642974854 960.02998895865 164897.27665776 106514846.09492
47	223801 9785 234 175899 1.11 32.61 316 26.489607272832 29.743342827976 8816.3484957285 246206.12831359
45	233586 10701 234 175899 1.11 32.61 316 -0.042592453278694 0.039108606634183 0.29622368377314 0.21200227261278
44	244287 9777 234 175899 1.11 32.61 316 4.9490553517333 5.073511309269 1580.4887390602 7905.1895998841
46	254064 5400 234 175899 1.11 32.61 316 2 2 632 1264
58	259464 12574 900 176003 1.229657900624 32.629657528468 315 0.099998795327 0.100011842923 31.499998468426 3.1499996979967
57	272038 12550 1038 176147 1.254911260874 32.654858873807 315 0.099907839705 0.100089841908 31.499959453515 3.1499924154575
56	284588 8501 900 176003 1.229657900624 32.629657528468 315 2 2 630 1260
55	293089 8489 1038 176147 1.254911260874 32.654858873807 315 2 2 630 1260
54	301578 438 5104 172414 2 32 31 0 0 0 0
53	302016 625 5104 172414 2 32 31 0.022969 0.02625 0.810469 0.021199449961
52	302641 438 5104 172414 2 32 31 2 2 62 124
73	303079 10140 235 175900 1.11 32.61 316 -1.4890877726353 1.4891492873218 13.940790308824 469.704694992
72	313219 10206 235 175900 1.11 32.61 316 -1.4634887750212 1.4362599131303 12.663520097702 328.33319792753
71	323425 6664 235 175900 1.11 32.61 316 36.55 36.55 11549.8 422145.19
70	330089 9805 235 175900 1.11 32.61 316 72.217642974854 951.01124943609 162052.72600405 103572702.8919
69	339894 9790 235 175900 1.11 32.61 316 26.502581656561 29.730048242857 8816.1550135658 246191.20204047
67	349684 10807 235 175900 1.11 32.61 316 -0.022067714510641 0.020412765752095 0.065213797772429 0.039929431069412
66	360491 9760 235 175900 1.11 32.61 316 4.970444718173 5.0493611528806 1580.5467840624 7905.5788730064
68	370251 5400 235 175900 1.11 32.61 316 3 3 948 2844
80	375651 12574 832 175935 1.213904870603 32.613904498228 315 0.099998795319 0.100011843023 31.499998468207 3.1499996979526
79	388225 12560 1044 176153 1.254911290894 32.654858903892 315 0.099907839706 0.100089841918 31.49995945358 3.1499924154705
78	400785 8495 832 175935 1.213904870603 32.613904498228 315 3 3 945 2835
77	409280 8487 1044 176153 1.254911290894 32.654858903892 315 3 3 945 2835
76	417767 438 5105 172415 2 32 31 0 0 0 0
75	418205 625 5105 172415 2 32 31 0.022968 0.02625 0.810468 0.021199404024
74	418830 438 5105 172415 2 32 31 3 3 93 279
117	419268 10467 237 175902 1.11 32.61 316 -1.4896672661499 3.7225552384708 58.391302131509 662.23147151821
116	429735 10522 237 175902 1.11 32.61 316 -1.4475619142914 2.4999999999999 42.238791330033 417.71083731934
115	440257 6980 237 175902 1.11 32.61 316 36.55 36.55 11549.8 422145.19
114	447237 10107 237 175902 1.11 32.61 316 54.217641067505 936.69166379305 156395.06784423 97899043.134644
113	457344 10097 237 175902 1.11 32.61 316 26.516208216587 31.935342351904 8853.9851471588 248392.2556152
111	467441 10973 237 175902 1.11 32.61 316 -0.038476784797282 0.61747566983 10.802058620552 4.8079932778532
110	478414 10104 237 175902 1.11 32.61 316 4.9765764759911 6.093335960781 1593.8684681768 8048.2366800139
112	488518 5716 237 175902 1.11 32.61 316 5 5 1580 7900
124	494234 12883 1172 176281 1.26574753106 32.665747155989 315 0.099998794688 0.100011842825 31.499998465511 3.149999697414
123	507117 12875 1056 176165 1.254911350936 32.654858951264 315 0.099907839698 0.100089841915 31.49995944091 3.1499924129365
122	519992 8824 1172 176281 1.26574753106 32.665747155989 315 5 5 1575 7875
121	528816 8815 1056 176165 1.254911350936 32.654858951264 315 5 5 1575 7875
120	537631 469 5107 172417 2 32 31 0 0 0 0
119	538100 656 5107 172417 2 32 31 0.022968 0.02625 0.810468 0.021199404024
118	538756 469 5107 172417 2 32 31 5 5 155 775
139	539225 10455 238 175903 1.11 32.61 316 -1.4807582968079 2.6115621579366 37.133483790299 540.7112165835
138	549680 10506 238 175903 1.11 32.61 316 -1.4503739176149 2.350791460136 32.895430141775 386.48506898072
137	560186 6980 238 175903 1.11 32.61 316 36.55 36.55 11549.8 422145.19
136	567166 10112 238 175903 1.11 32.61 316 45.217641067505 926.33633616626 153537.01505252 95084681.568585
135	577278 10124 238 175903 1.11 32.61 316 26.510072624806 31.022914799517 8840.1093315225 247573.57347935
133	587402 10991 238 175903 1.11 32.61 316 -0.019933723703087 0.89762335792545 13.453427722978 8.6287159198129
132	598393 10086 238 175903 1.11 32.61 316 4.9922591690601 6.3370790757365 1593.7752754035 8048.9968101424
134	608479 5716 238 175903 1.11 32.61 316 6 6 1896 11376
146	614195 12846 1312 175865 1.305157621123 32.605158424711 314 0.099998796556 0.100011842696 31.39999964417 3.1399999331443
145	627041 12881 1062 176171 1.254911380957 32.654858985929 315 0.099907839699 0.100089841913 31.499959445554 3.1499924138653
144	639922 8795 1312 175865 1.305157621123 32.605158424711 314 6 6 1884 11304
143	648717 8818 1062 176171 1.254911380957 32.654858985929 315 6 6 1890 11340
142	657535 469 5108 172418 2 32 31 0 0 0 0
141	658004 656 5108 172418 2 32 31 0.022969 0.02625 0.810469 0.021199449961
140	658660 469 5108 172418 2 32 31 6 6 186 1116
161	659129 10465 239 175904 1.11 32.61 316 -1.4938774161461 2.088167257741 28.061444125306 518.10189596776
160	669594 10523 239 175904 1.11 32.61 316 -1.4564665686184 1.9880281824346 24.095240972805 357.75374975279
159	680117 6980 239 175904 1.11 32.61 316 36.55 36.55 11549.8 422145.19
158	687097 10099 239 175904 1.11 32.61 316 36.217641067505 916.21271012751 150682.91080479 92329197.121301
157	697196 10107 239 175904 1.11 32.61 316 26.507771113179 30.14811650504 8828.5655425918 246900.43690644
155	707303 11175 239 175904 1.11 32.61 316 -0.0095325882715791 0.86379830561439 11.214834629247 7.0433416611083
154	718478 10098 239 175904 1.11 32.61 316 4.978517015099 6.1061300728651 1589.8733719442 8005.2292051899
156	728576 5716 239 175904 1.11 32.61 316 7 7 2212 15484
168	734292 12868 975 176078 1.254433050728 32.654432674677 315 0.099998794966 0.100011842991 31.499998464531 3.1499996972176
167	747160 12884 1068 176177 1.254911410977 32.654859019816 315 0.099907839704 0.10008984192 31.499959449421 3.1499924146387
166	760044 8820 975 176078 1.254433050728 32.654432674677 315 7 7 2205 15435
165	768864 8815 1068 176177 1.254911410977 32.654859019816 315 7 7 2205 15435
164	777679 469 5109 172419 2 32 31 0 0 0 0
163	778148 656 5109 172419 2 32 31 0.022969 0.02625 0.810469 0.021199449961
162	778804 469 5109 172419 2 32 31 7 7 217 1519
88	779273 9797 236 176313 1.11 32.67 317 0 5.0268300583197 1536.5462943136 7597.1915943085
89	789070 10850 236 176313 1.11 32.67 317 -3.6760476269709 0.014563171124944 -52.923328411028 133.0252074079
90	799920 5418 236 176313 1.11 32.67 317 4 4 1268 5072
91	805338 9820 236 176313 1.11 32.67 317 26.513182091437 32.702118312039 8897.9777774609 250131.6663601
92	815158 9825 236 176313 1.11 32.67 317 63.217642974853 948.75804545009 160201.9201681 101665081.6298
93	824983 6686 236 176313 1.11 32.67 317 36.55 36.55 11586.35 423481.0925
94	831669 10220 236 176313 1.11 32.67 317 -1.452742805564 2.4999999999999 50.887910480171 446.03219971541
95	841889 10162 236 176313 1.11 32.67 317 -1.4821537214797 5.8103947140679 103.9169457334 991.46511841518
96	852051 438 5106 172416 2 32 31 4 4 124 496
97	852489 625 5106 172416 2 32 31 0.022969 0.02625 0.810469 0.021199449961
98	853114 438 5106 172416 2 32 31 0 0 0 0
99	853552 8512 1050 176159 1.254911320915 32.654858917464 315 4 4 1260 5040
100	862064 8788 1246 175793 1.303561561081 32.603562356511 314 4 4 1256 5024
101	870852 12896 1050 176159 1.254911320915 32.654858917464 315 0.099907839704 0.100089841921 31.499959437131 3.1499924121807
102	883748 12848 1246 175793 1.303561561081 32.603562356511 314 0.099998796056 0.100011843011 31.399999636012 3.139999931512
