file 880914 1512141392                                          
version 2
run SinusoidalSpeedInjectionAttack-3-20171201-16:16:15-46717
attr CACCSpacing 5
attr attackAcc -30
attr attackPos 7
attr attackSpeed -50
attr attackStart 30
attr attacker 3
attr beaconInterval 0.1
attr configname SinusoidalSpeedInjectionAttack
attr controller 1
attr datetime 20171201-16:16:15
attr experiment SinusoidalSpeedInjectionAttack
attr fakeAcc "(3 == 4)"
attr fakePos "(3 == 2)"
attr fakeSpeed "(3 == 3)"
attr inifile omnetpp_3.ini
attr iterationvars "$attacker=3, $attackSpeed=-50, $attackPos=7, $attackAcc=-30, $leaderSpeed=50, $controller=1, $CACCSpacing=5, $sController=\"CACC\", $attackStart=30, $0=5, $1=0, $nCars=8, $platoonSize=8, $nLanes=1, $beaconInterval=0.1, $priority=2, $packetSize=200, $ploegH=0.5, $leaderHeadway=1.2, $fakeSpeed=(3 == 3), $fakeAcc=(3 == 4), $fakePos=(3 == 2)"
attr iterationvarsf attacker=3,attackSpeed=-50,attackPos=7,attackAcc=-30,leaderSpeed=50,controller=1,CACCSpacing=5,sController=CACC,attackStart=30,5,0,nCars=8,platoonSize=8,nLanes=1,beaconInterval=0.1,priority=2,packetSize=200,ploegH=0.5,leaderHeadway=1.2,fakeSpeed=(3_==_3),fakeAcc=(3_==_4),fakePos=(3_==_2)-
attr leaderHeadway 1.2
attr leaderSpeed 50
attr measurement "$attacker=3, $attackSpeed=-50, $attackPos=7, $attackAcc=-30, $leaderSpeed=50, $controller=1, $CACCSpacing=5, $sController=\"CACC\", $attackStart=30, $0=5, $1=0, $nCars=8, $platoonSize=8, $nLanes=1, $beaconInterval=0.1, $priority=2, $packetSize=200, $ploegH=0.5, $leaderHeadway=1.2, $fakeSpeed=(3 == 3), $fakeAcc=(3 == 4), $fakePos=(3 == 2)"
attr nCars 8
attr nLanes 1
attr network scenario
attr packetSize 200
attr platoonSize 8
attr ploegH 0.5
attr priority 2
attr processid 46717
attr repetition 3
attr replication #3
attr resultdir results
attr runnumber 3
attr sController "\"CACC\""
attr seedset 3
param **.coreDebug false
param **.debug false
param **.headway 0.1s
param **.numberOfCars 8
param **.numberOfCarsPerPlatoon 8
param **.numberOfLanes 1
param **.numericController 1
param **.traffic.nCars 8
param **.traffic.nLanes 1
param **.traffic.platoonInsertDistance 5m
param **.traffic.platoonInsertHeadway 0s
param **.traffic.platoonInsertSpeed 50kmph
param **.traffic.platoonInsertTime "1 s"
param **.traffic.platoonLeaderHeadway 1.2s
param **.traffic.platoonSize 8
param **.traffic.platooningVType "\"vtypeauto\""
param **.traffic_type "\"PlatoonsTrafficManager\""
param *.**.nic.mac1609_4.bitrate 6Mbps
param *.**.nic.mac1609_4.txPower 100mW
param *.**.nic.mac1609_4.useServiceChannel false
param *.**.nic.phy80211p.analogueModels "xmldoc(\"config.xml\")"
param *.**.nic.phy80211p.decider "xmldoc(\"config.xml\")"
param *.**.nic.phy80211p.maxTXPower 100mW
param *.**.nic.phy80211p.sensitivity -94dBm
param *.**.nic.phy80211p.thermalNoise -95dBm
param *.**.nic.phy80211p.usePropagationDelay true
param *.**.nic.phy80211p.useThermalNoise true
param *.annotations.draw false
param *.connectionManager.alpha 2.0
param *.connectionManager.carrierFrequency "5.890e9 Hz"
param *.connectionManager.pMax 100mW
param *.connectionManager.sat -94dBm
param *.connectionManager.sendDirect true
param *.manager.autoShutdown true
param *.manager.commandLine "\"sumo --remote-port $port --seed $seed --configuration-file $configFile\""
param *.manager.configFile "\"./sumocfg/freeway.sumo.cfg\""
param *.manager.host "\"localhost\""
param *.manager.margin 25
param *.manager.moduleDisplayString "\"\""
param *.manager.moduleName "\"node\""
param *.manager.moduleType "\"Car\""
param *.manager.updateInterval 0.01s
param *.node[*].appl.attackStart 30s
param *.node[*].appl.attackerType 3
param *.node[*].appl.simulationDuration "60 s"
param *.node[*].appl_type "\"SimplePlatooningApp\""
param *.node[*].helper.nCars 8
param *.node[*].helper.nLanes 1
param *.node[*].helper.platoonSize 8
param *.node[*].helper_type "\"PositionHelper\""
param *.node[*].mobility.x 0
param *.node[*].mobility.y 0
param *.node[*].mobility.z 1.895
param *.node[*].prot.attackStart 30s
param *.node[*].prot.attackerType 3
param *.node[*].prot.attackingNode 3
param *.node[*].prot.beaconingInterval 0.1s
param *.node[*].prot.fakeAcc "(3 == 4)"
param *.node[*].prot.fakePos "(3 == 2)"
param *.node[*].prot.fakeSpeed "(3 == 3)"
param *.node[*].prot.maliciousAcc "-30 mpss"
param *.node[*].prot.maliciousSpeed -50kmph
param *.node[*].prot.packetSize 200
param *.node[*].prot.priority 2
param *.node[*].prot.shiftX "7 m"
param *.node[*].prot.useControllerAcceleration true
param *.node[*].protocol_type "\"SimplePlatooningBeaconing\""
param *.node[*].scenario.accHeadway 0.1s
param *.node[*].scenario.caccC1 0.5
param *.node[*].scenario.caccOmegaN "0.2 Hz"
param *.node[*].scenario.caccSpacing 5m
param *.node[*].scenario.caccXi 1
param *.node[*].scenario.controller "\"CACC\""
param *.node[*].scenario.engineTau "0.5 s"
param *.node[*].scenario.leaderHeadway 1.2s
param *.node[*].scenario.leaderSpeed 50kmph
param *.node[*].scenario.ploegH 0.5s
param *.node[*].scenario.ploegKd 0.7
param *.node[*].scenario.ploegKp 0.2
param *.node[*].scenario.useRealisticEngine false
param *.node[*].scenario_type "\"SinusoidalScenario\""
param *.node[*].unicast.packetLossRate 0
param *.obstacles.debug false
param *.playgroundSizeX 65000m
param *.playgroundSizeY 25000m
param *.playgroundSizeZ 50m
param *.world.use2D false
param *.world.useTorus false

vector 0  scenario.node[0].appl  distance  ETV
vector 1  scenario.node[0].appl  relativeSpeed  ETV
vector 2  scenario.node[0].appl  nodeId  ETV
vector 6  scenario.node[0].appl  acceleration  ETV
vector 7  scenario.node[0].appl  controllerAcceleration  ETV
vector 3  scenario.node[0].appl  speed  ETV
vector 4  scenario.node[0].appl  posx  ETV
vector 5  scenario.node[0].appl  posy  ETV
vector 22  scenario.node[1].appl  distance  ETV
vector 23  scenario.node[1].appl  relativeSpeed  ETV
vector 24  scenario.node[1].appl  nodeId  ETV
vector 28  scenario.node[1].appl  acceleration  ETV
vector 29  scenario.node[1].appl  controllerAcceleration  ETV
vector 25  scenario.node[1].appl  speed  ETV
vector 26  scenario.node[1].appl  posx  ETV
vector 27  scenario.node[1].appl  posy  ETV
vector 44  scenario.node[2].appl  distance  ETV
vector 45  scenario.node[2].appl  relativeSpeed  ETV
vector 46  scenario.node[2].appl  nodeId  ETV
vector 50  scenario.node[2].appl  acceleration  ETV
vector 51  scenario.node[2].appl  controllerAcceleration  ETV
vector 47  scenario.node[2].appl  speed  ETV
vector 48  scenario.node[2].appl  posx  ETV
vector 49  scenario.node[2].appl  posy  ETV
vector 66  scenario.node[3].appl  distance  ETV
vector 67  scenario.node[3].appl  relativeSpeed  ETV
vector 68  scenario.node[3].appl  nodeId  ETV
vector 72  scenario.node[3].appl  acceleration  ETV
vector 73  scenario.node[3].appl  controllerAcceleration  ETV
vector 69  scenario.node[3].appl  speed  ETV
vector 70  scenario.node[3].appl  posx  ETV
vector 71  scenario.node[3].appl  posy  ETV
vector 88  scenario.node[4].appl  distance  ETV
vector 89  scenario.node[4].appl  relativeSpeed  ETV
vector 90  scenario.node[4].appl  nodeId  ETV
vector 94  scenario.node[4].appl  acceleration  ETV
vector 95  scenario.node[4].appl  controllerAcceleration  ETV
vector 91  scenario.node[4].appl  speed  ETV
vector 92  scenario.node[4].appl  posx  ETV
vector 93  scenario.node[4].appl  posy  ETV
vector 110  scenario.node[5].appl  distance  ETV
vector 111  scenario.node[5].appl  relativeSpeed  ETV
vector 112  scenario.node[5].appl  nodeId  ETV
vector 116  scenario.node[5].appl  acceleration  ETV
vector 117  scenario.node[5].appl  controllerAcceleration  ETV
vector 113  scenario.node[5].appl  speed  ETV
vector 114  scenario.node[5].appl  posx  ETV
vector 115  scenario.node[5].appl  posy  ETV
vector 132  scenario.node[6].appl  distance  ETV
vector 133  scenario.node[6].appl  relativeSpeed  ETV
vector 134  scenario.node[6].appl  nodeId  ETV
vector 138  scenario.node[6].appl  acceleration  ETV
vector 139  scenario.node[6].appl  controllerAcceleration  ETV
vector 135  scenario.node[6].appl  speed  ETV
vector 136  scenario.node[6].appl  posx  ETV
vector 137  scenario.node[6].appl  posy  ETV
vector 154  scenario.node[7].appl  distance  ETV
vector 155  scenario.node[7].appl  relativeSpeed  ETV
vector 156  scenario.node[7].appl  nodeId  ETV
vector 160  scenario.node[7].appl  acceleration  ETV
vector 161  scenario.node[7].appl  controllerAcceleration  ETV
vector 157  scenario.node[7].appl  speed  ETV
vector 158  scenario.node[7].appl  posx  ETV
vector 159  scenario.node[7].appl  posy  ETV
vector 35  scenario.node[1].prot  leaderDelay  ETV
vector 33  scenario.node[1].prot  leaderDelayId  ETV
vector 36  scenario.node[1].prot  frontDelay  ETV
vector 34  scenario.node[1].prot  frontDelayId  ETV
vector 57  scenario.node[2].prot  leaderDelay  ETV
vector 55  scenario.node[2].prot  leaderDelayId  ETV
vector 79  scenario.node[3].prot  leaderDelay  ETV
vector 77  scenario.node[3].prot  leaderDelayId  ETV
vector 101  scenario.node[4].prot  leaderDelay  ETV
vector 99  scenario.node[4].prot  leaderDelayId  ETV
vector 123  scenario.node[5].prot  leaderDelay  ETV
vector 121  scenario.node[5].prot  leaderDelayId  ETV
vector 145  scenario.node[6].prot  leaderDelay  ETV
vector 143  scenario.node[6].prot  leaderDelayId  ETV
vector 167  scenario.node[7].prot  leaderDelay  ETV
vector 165  scenario.node[7].prot  leaderDelayId  ETV
vector 168  scenario.node[7].prot  frontDelay  ETV
vector 166  scenario.node[7].prot  frontDelayId  ETV
vector 58  scenario.node[2].prot  frontDelay  ETV
vector 56  scenario.node[2].prot  frontDelayId  ETV
vector 124  scenario.node[5].prot  frontDelay  ETV
vector 122  scenario.node[5].prot  frontDelayId  ETV
vector 80  scenario.node[3].prot  frontDelay  ETV
vector 78  scenario.node[3].prot  frontDelayId  ETV
vector 146  scenario.node[6].prot  frontDelay  ETV
vector 144  scenario.node[6].prot  frontDelayId  ETV
vector 102  scenario.node[4].prot  frontDelay  ETV
vector 100  scenario.node[4].prot  frontDelayId  ETV
vector 8  scenario.node[0].prot  nodeId  ETV
vector 9  scenario.node[0].prot  busyTime  ETV
vector 10  scenario.node[0].prot  collisions  ETV
vector 30  scenario.node[1].prot  nodeId  ETV
vector 31  scenario.node[1].prot  busyTime  ETV
vector 32  scenario.node[1].prot  collisions  ETV
vector 52  scenario.node[2].prot  nodeId  ETV
vector 53  scenario.node[2].prot  busyTime  ETV
vector 54  scenario.node[2].prot  collisions  ETV
vector 74  scenario.node[3].prot  nodeId  ETV
vector 75  scenario.node[3].prot  busyTime  ETV
vector 76  scenario.node[3].prot  collisions  ETV
vector 96  scenario.node[4].prot  nodeId  ETV
vector 97  scenario.node[4].prot  busyTime  ETV
vector 98  scenario.node[4].prot  collisions  ETV
vector 118  scenario.node[5].prot  nodeId  ETV
vector 119  scenario.node[5].prot  busyTime  ETV
vector 120  scenario.node[5].prot  collisions  ETV
vector 140  scenario.node[6].prot  nodeId  ETV
vector 141  scenario.node[6].prot  busyTime  ETV
vector 142  scenario.node[6].prot  collisions  ETV
vector 162  scenario.node[7].prot  nodeId  ETV
vector 163  scenario.node[7].prot  busyTime  ETV
vector 164  scenario.node[7].prot  collisions  ETV
7	11076 7375 232 172555 1.11 32.01 310 -1.5 1.5 15.930734696295 491.0683267157
6	18451 9709 232 172555 1.11 32.01 310 -1.472274679513 1.4513407705126 8.5947217434551 331.37550906677
5	28160 6222 232 172555 1.11 32.01 310 36.55 36.55 11330.5 414129.775
4	34382 9300 232 172555 1.11 32.01 310 103.73484382616 536.15936117091 99640.861868223 36902515.972708
3	43682 9291 232 172555 1.11 32.01 310 12.59914837223 15.853603639796 4338.4247913082 60942.258092895
1	52973 4982 232 172555 1.11 32.01 310 0 0 0 0
0	57955 5292 232 172555 1.11 32.01 310 -1 -1 -310 310
2	63247 4982 232 172555 1.11 32.01 310 0 0 0 0
10	68229 438 5056 172366 2 32 31 0 0 0 0
9	68667 797 5056 172366 2 32 31 0.022754155264 0.026262199507 0.810255321479 0.02118968812512
8	69464 407 5056 172366 2 32 31 0 0 0 0
29	69871 9955 233 172556 1.11 32.01 310 -1.5233934268137 1.5241492075817 15.042883884092 498.15695907386
28	79826 10012 233 172556 1.11 32.01 310 -1.4872877097888 1.4632119896703 7.7087424725098 333.81040028601
27	89838 6532 233 172556 1.11 32.01 310 36.55 36.55 11330.5 414129.775
26	96370 9603 233 172556 1.11 32.01 310 94.734843826294 527.09943774495 96848.695657371 35133467.944962
25	105973 9593 233 172556 1.11 32.01 310 12.591606548197 15.859016035216 4337.7934568556 60927.099584147
23	115566 10486 233 172556 1.11 32.01 310 -0.085370614405605 0.085492913328835 0.54538723516974 1.2023018394883
22	126052 9601 233 172556 1.11 32.01 310 4.9094713952348 5.1291545418569 1552.1535841625 7772.6387634758
24	135653 5292 233 172556 1.11 32.01 310 1 1 310 310
36	140945 12284 836 172603 1.269557810561 32.069559917425 309 0.09999877886 0.100011819376 30.900000887404 3.0900001819215
35	153229 12284 836 172603 1.269557810561 32.069559917425 309 0.09999877886 0.100011819376 30.900000887404 3.0900001819215
34	165513 8339 836 172603 1.269557810561 32.069559917425 309 1 1 309 309
33	173852 8339 836 172603 1.269557810561 32.069559917425 309 1 1 309 309
32	182191 438 5057 172367 2 32 31 0 0 0 0
31	182629 834 5057 172367 2 32 31 0.022754185285 0.026262199235 0.810255351694 0.021189689501503
30	183463 438 5057 172367 2 32 31 1 1 31 31
51	183901 9977 234 172557 1.11 32.01 310 -1.5293286418104 1.5293868305991 15.051870471073 499.70146665231
50	193878 10028 234 172557 1.11 32.01 310 -1.4784118006608 1.4535038993126 7.4613289449582 330.3612963027
49	203906 6532 234 172557 1.11 32.01 310 36.55 36.55 11330.5 414129.775
48	210438 9594 234 172557 1.11 32.01 310 85.734847640991 518.09307520639 94057.531040918 33414857.107639
47	220032 9599 234 172557 1.11 32.01 310 12.59754485716 15.852838000542 4337.7214516475 60922.849230685
45	229631 10694 234 172557 1.11 32.01 310 -0.011889282479549 0.011086345333856 -0.005082216564853 0.010767697044575
44	240325 9595 234 172557 1.11 32.01 310 4.9825738023807 5.0363330440238 1551.1631763492 7761.6914400487
46	249920 5292 234 172557 1.11 32.01 310 2 2 620 1240
58	255212 12255 1046 172242 1.299189200831 31.999192438996 308 0.099998778849 0.100011845282 30.800002018705 3.0800004081811
57	267467 12288 842 172609 1.269557840582 32.069559947471 309 0.099998778859 0.100011819382 30.900000887429 3.0900001819265
56	279755 8316 1046 172242 1.299189200831 31.999192438996 308 2 2 616 1232
55	288071 8343 842 172609 1.269557840582 32.069559947471 309 2 2 618 1236
54	296414 438 5058 172368 2 32 31 0 0 0 0
53	296852 833 5058 172368 2 32 31 0.022754215306 0.026262199165 0.810255381734 0.021189690868706
52	297685 438 5058 172368 2 32 31 2 2 62 124
73	298123 9956 235 172558 1.11 32.01 310 -1.4888807629826 1.4893729116495 13.807901220394 465.75041064187
72	308079 10006 235 172558 1.11 32.01 310 -1.4638941721065 1.4373649683776 6.9853153899968 322.98618832184
71	318085 6532 235 172558 1.11 32.01 310 36.55 36.55 11330.5 414129.775
70	324617 9602 235 172558 1.11 32.01 310 76.734847640991 509.08313181696 91266.446464295 31746863.595054
69	334219 9606 235 172558 1.11 32.01 310 12.612456069581 15.839340167311 4337.6057508891 60915.160134087
67	343825 10512 235 172558 1.11 32.01 310 -0.037725855830377 0.033958280317069 0.041087468908653 0.13121351703632
66	354337 9557 235 172558 1.11 32.01 310 4.9599643837865 5.0696737340895 1551.0822626072 7761.0494033069
68	363894 5292 235 172558 1.11 32.01 310 3 3 930 2790
80	369186 12261 1180 172391 1.300210350935 32.000213648317 308 0.099998778852 0.100011861286 30.800002077922 3.0800004200249
79	381447 12267 848 172615 1.269557870602 32.069559977532 309 0.099998778857 0.100011819393 30.90000088747 3.0900001819347
78	393714 8316 1180 172391 1.300210350935 32.000213648317 308 3 3 924 2772
77	402030 8328 848 172615 1.269557870602 32.069559977532 309 3 3 927 2781
76	410358 438 5059 172369 2 32 31 0 0 0 0
75	410796 831 5059 172369 2 32 31 0.022753185285 0.026262199305 0.810254351683 0.021189643993557
74	411627 438 5059 172369 2 32 31 3 3 93 279
95	412065 9976 236 172559 1.11 32.01 310 -6.9967647883436 1.4833558252094 -109.75490615545 898.77742411062
94	422041 10007 236 172559 1.11 32.01 310 -4.9148299471485 1.4275171527817 -95.412052675464 652.95111417357
93	432048 6532 236 172559 1.11 32.01 310 36.55 36.55 11330.5 414129.775
92	438580 9600 236 172559 1.11 32.01 310 67.734847640991 491.01982834058 88416.495944008 30071107.718673
91	448180 9587 236 172559 1.11 32.01 310 4.496251194131 15.826067280671 4243.42213213 58968.119458475
89	457767 10625 236 172559 1.11 32.01 310 -0.01216431572978 10.013402481956 94.113765605248 647.79786072392
88	468392 9559 236 172559 1.11 32.01 310 4.9850564581482 13.862748370805 1608.0668479123 8647.4208468521
90	477951 5292 236 172559 1.11 32.01 310 4 4 1240 4960
102	483243 12556 1312 172523 1.306028501039 32.006031856796 308 0.099907778985 0.100089782295 30.799937136297 3.0799879562614
101	495799 12585 854 172621 1.269557900623 32.069560039493 309 0.099998778855 0.100011821662 30.90000091941 3.0900001883227
100	508384 8621 1312 172523 1.306028501039 32.006031856796 308 4 4 1232 4928
99	517005 8337 854 172621 1.269557900623 32.069560039493 309 4 4 1236 4944
98	525342 438 5060 172370 2 32 31 0 0 0 0
97	525780 835 5060 172370 2 32 31 0.022754155264 0.026262199361 0.810255292099 0.021189686582739
96	526615 438 5060 172370 2 32 31 4 4 124 496
139	527053 10271 238 172561 1.11 32.01 310 -1.4833385430191 1.4846827018244 -24.348057205086 426.52210616182
138	537324 10339 238 172561 1.11 32.01 310 -1.4512379829322 1.4280810601067 -22.405289881715 300.34407889244
137	547663 6842 238 172561 1.11 32.01 310 36.55 36.55 11330.5 414129.775
136	554505 9905 238 172561 1.11 32.01 310 49.734845733643 479.83049238594 82878.9851688 27029718.768595
135	564410 9912 238 172561 1.11 32.01 310 11.670853919958 15.822589941335 4314.0643669589 60305.21042017
133	574322 10756 238 172561 1.11 32.01 310 -2.4358463407314 0.046328192358921 -21.351724784106 36.577189213926
132	585078 9909 238 172561 1.11 32.01 310 2.9533264527805 5.0375579050124 1538.8865793736 7654.9867109946
134	594987 5602 238 172561 1.11 32.01 310 6 6 1860 11160
146	600589 12556 1249 172460 1.305615440997 32.005605745621 308 0.099998778836 0.100011794714 30.799989085164 3.0799978213341
145	613145 12599 866 172633 1.269557960665 32.069560075599 309 0.099998778853 0.100011819962 30.900000895474 3.0900001835355
144	625744 8625 1249 172460 1.305615440997 32.005605745621 308 6 6 1848 11088
143	634369 8656 866 172633 1.269557960665 32.069560075599 309 6 6 1854 11124
142	643025 469 5062 172372 2 32 31 0 0 0 0
141	643494 865 5062 172372 2 32 31 0.022754095223 0.026262199288 0.810255254297 0.021189685017869
140	644359 469 5062 172372 2 32 31 6 6 186 1116
161	644828 10299 239 172562 1.11 32.01 310 -1.5021746591738 1.5049027642349 -7.5903788405996 440.79914982823
160	655127 10351 239 172562 1.11 32.01 310 -1.4497273603782 1.4254867377076 -8.2216580083456 294.94324060998
159	665478 6842 239 172562 1.11 32.01 310 36.55 36.55 11330.5 414129.775
158	672320 9915 239 172562 1.11 32.01 310 40.734846687317 472.02456111177 80095.327139467 25569466.96481
157	682235 9902 239 172562 1.11 32.01 310 12.618189919454 15.819260956633 4326.4964122739 60613.567266053
155	692137 11015 239 172562 1.11 32.01 310 -1.3789648985331 0.0045407914176394 -12.207992416141 11.417133381784
154	703152 9908 239 172562 1.11 32.01 310 3.833627648225 5.0189441985916 1543.9066702386 7694.4360558749
156	713060 5602 239 172562 1.11 32.01 310 7 7 2170 15190
168	718662 12551 980 172182 1.292107050727 31.992097277609 308 0.099998778853 0.100011791298 30.799989007422 3.0799978057858
167	731213 12590 872 172639 1.269557990685 32.0695601014 309 0.099998778853 0.100011819664 30.900000891255 3.0900001826917
166	743803 8614 980 172182 1.292107050727 31.992097277609 308 7 7 2156 15092
165	752417 8640 872 172639 1.269557990685 32.0695601014 309 7 7 2163 15141
164	761057 469 5063 172373 2 32 31 0 0 0 0
163	761526 865 5063 172373 2 32 31 0.022754065202 0.026262199331 0.810255228167 0.021189683855937
162	762391 469 5063 172373 2 32 31 7 7 217 1519
110	762860 9905 237 172641 1.11 32.07 311 0 5.018762597982 1520.0370405312 7542.3751282771
111	772765 10850 237 172641 1.11 32.07 311 -4.8014372381808 0.01916027281435 -52.662385453817 182.56334836861
112	783615 5621 237 172641 1.11 32.07 311 5 5 1555 7775
113	789236 9932 237 172641 1.11 32.07 311 9.1025956568123 15.816622504074 4301.3397965292 59901.462781582
114	799168 9942 237 172641 1.11 32.07 311 58.734847640991 487.28258094034 86144.717785792 28772619.769932
115	809110 6865 237 172641 1.11 32.07 311 36.55 36.55 11367.05 415465.6775
116	815975 10373 237 172641 1.11 32.07 311 -2.0859346678137 1.4221569123524 -49.437645149259 361.3908552726
117	826348 10339 237 172641 1.11 32.07 311 -2.8869061243197 1.5049213434874 -60.89125797666 536.51202413838
118	836687 469 5061 172371 2 32 31 5 5 155 775
119	837156 864 5061 172371 2 32 31 0.022753125244 0.026262199367 0.810254277491 0.021189640518422
120	838020 469 5061 172371 2 32 31 0 0 0 0
121	838489 8652 860 172627 1.269557930644 32.069560052987 309 5 5 1545 7725
122	847141 8620 1112 172308 1.299602290893 31.999592543239 308 5 5 1540 7700
123	855761 12599 860 172627 1.269557930644 32.069560052987 309 0.099998778852 0.100011820501 30.900000902883 3.0900001850173
124	868360 12554 1112 172308 1.299602290893 31.999592543239 308 0.099998778842 0.10001179672 30.799989032886 3.0799978108787
