file 969260 1512142698                                          
version 2
run SinusoidalSpeedInjectionAttack-265-20171201-16:37:59-10389
attr CACCSpacing 20
attr attackAcc -30
attr attackPos 7
attr attackSpeed 150
attr attackStart 30
attr attacker 3
attr beaconInterval 0.1
attr configname SinusoidalSpeedInjectionAttack
attr controller 1
attr datetime 20171201-16:37:59
attr experiment SinusoidalSpeedInjectionAttack
attr fakeAcc "(3 == 4)"
attr fakePos "(3 == 2)"
attr fakeSpeed "(3 == 3)"
attr inifile omnetpp_265.ini
attr iterationvars "$attacker=3, $attackSpeed=150, $attackPos=7, $attackAcc=-30, $leaderSpeed=100, $controller=1, $CACCSpacing=20, $sController=\"CACC\", $attackStart=30, $0=20, $1=0, $nCars=8, $platoonSize=8, $nLanes=1, $beaconInterval=0.1, $priority=2, $packetSize=200, $ploegH=0.5, $leaderHeadway=1.2, $fakeSpeed=(3 == 3), $fakeAcc=(3 == 4), $fakePos=(3 == 2)"
attr iterationvarsf attacker=3,attackSpeed=150,attackPos=7,attackAcc=-30,leaderSpeed=100,controller=1,CACCSpacing=20,sController=CACC,attackStart=30,20,0,nCars=8,platoonSize=8,nLanes=1,beaconInterval=0.1,priority=2,packetSize=200,ploegH=0.5,leaderHeadway=1.2,fakeSpeed=(3_==_3),fakeAcc=(3_==_4),fakePos=(3_==_2)-
attr leaderHeadway 1.2
attr leaderSpeed 100
attr measurement "$attacker=3, $attackSpeed=150, $attackPos=7, $attackAcc=-30, $leaderSpeed=100, $controller=1, $CACCSpacing=20, $sController=\"CACC\", $attackStart=30, $0=20, $1=0, $nCars=8, $platoonSize=8, $nLanes=1, $beaconInterval=0.1, $priority=2, $packetSize=200, $ploegH=0.5, $leaderHeadway=1.2, $fakeSpeed=(3 == 3), $fakeAcc=(3 == 4), $fakePos=(3 == 2)"
attr nCars 8
attr nLanes 1
attr network scenario
attr packetSize 200
attr platoonSize 8
attr ploegH 0.5
attr priority 2
attr processid 10389
attr repetition 0
attr replication #0
attr resultdir results
attr runnumber 265
attr sController "\"CACC\""
attr seedset 0
param **.coreDebug false
param **.debug false
param **.headway 0.1s
param **.numberOfCars 8
param **.numberOfCarsPerPlatoon 8
param **.numberOfLanes 1
param **.numericController 1
param **.traffic.nCars 8
param **.traffic.nLanes 1
param **.traffic.platoonInsertDistance 20m
param **.traffic.platoonInsertHeadway 0s
param **.traffic.platoonInsertSpeed 100kmph
param **.traffic.platoonInsertTime "1 s"
param **.traffic.platoonLeaderHeadway 1.2s
param **.traffic.platoonSize 8
param **.traffic.platooningVType "\"vtypeauto\""
param **.traffic_type "\"PlatoonsTrafficManager\""
param *.**.nic.mac1609_4.bitrate 6Mbps
param *.**.nic.mac1609_4.txPower 100mW
param *.**.nic.mac1609_4.useServiceChannel false
param *.**.nic.phy80211p.analogueModels "xmldoc(\"config.xml\")"
param *.**.nic.phy80211p.decider "xmldoc(\"config.xml\")"
param *.**.nic.phy80211p.maxTXPower 100mW
param *.**.nic.phy80211p.sensitivity -94dBm
param *.**.nic.phy80211p.thermalNoise -95dBm
param *.**.nic.phy80211p.usePropagationDelay true
param *.**.nic.phy80211p.useThermalNoise true
param *.annotations.draw false
param *.connectionManager.alpha 2.0
param *.connectionManager.carrierFrequency "5.890e9 Hz"
param *.connectionManager.pMax 100mW
param *.connectionManager.sat -94dBm
param *.connectionManager.sendDirect true
param *.manager.autoShutdown true
param *.manager.commandLine "\"sumo --remote-port $port --seed $seed --configuration-file $configFile\""
param *.manager.configFile "\"./sumocfg/freeway.sumo.cfg\""
param *.manager.host "\"localhost\""
param *.manager.margin 25
param *.manager.moduleDisplayString "\"\""
param *.manager.moduleName "\"node\""
param *.manager.moduleType "\"Car\""
param *.manager.updateInterval 0.01s
param *.node[*].appl.attackStart 30s
param *.node[*].appl.attackerType 3
param *.node[*].appl.simulationDuration "60 s"
param *.node[*].appl_type "\"SimplePlatooningApp\""
param *.node[*].helper.nCars 8
param *.node[*].helper.nLanes 1
param *.node[*].helper.platoonSize 8
param *.node[*].helper_type "\"PositionHelper\""
param *.node[*].mobility.x 0
param *.node[*].mobility.y 0
param *.node[*].mobility.z 1.895
param *.node[*].prot.attackStart 30s
param *.node[*].prot.attackerType 3
param *.node[*].prot.attackingNode 3
param *.node[*].prot.beaconingInterval 0.1s
param *.node[*].prot.fakeAcc "(3 == 4)"
param *.node[*].prot.fakePos "(3 == 2)"
param *.node[*].prot.fakeSpeed "(3 == 3)"
param *.node[*].prot.maliciousAcc "-30 mpss"
param *.node[*].prot.maliciousSpeed 150kmph
param *.node[*].prot.packetSize 200
param *.node[*].prot.priority 2
param *.node[*].prot.shiftX "7 m"
param *.node[*].prot.useControllerAcceleration true
param *.node[*].protocol_type "\"SimplePlatooningBeaconing\""
param *.node[*].scenario.accHeadway 0.1s
param *.node[*].scenario.caccC1 0.5
param *.node[*].scenario.caccOmegaN "0.2 Hz"
param *.node[*].scenario.caccSpacing 20m
param *.node[*].scenario.caccXi 1
param *.node[*].scenario.controller "\"CACC\""
param *.node[*].scenario.engineTau "0.5 s"
param *.node[*].scenario.leaderHeadway 1.2s
param *.node[*].scenario.leaderSpeed 100kmph
param *.node[*].scenario.ploegH 0.5s
param *.node[*].scenario.ploegKd 0.7
param *.node[*].scenario.ploegKp 0.2
param *.node[*].scenario.useRealisticEngine false
param *.node[*].scenario_type "\"SinusoidalScenario\""
param *.node[*].unicast.packetLossRate 0
param *.obstacles.debug false
param *.playgroundSizeX 65000m
param *.playgroundSizeY 25000m
param *.playgroundSizeZ 50m
param *.world.use2D false
param *.world.useTorus false

vector 0  scenario.node[0].appl  distance  ETV
vector 1  scenario.node[0].appl  relativeSpeed  ETV
vector 2  scenario.node[0].appl  nodeId  ETV
vector 6  scenario.node[0].appl  acceleration  ETV
vector 7  scenario.node[0].appl  controllerAcceleration  ETV
vector 3  scenario.node[0].appl  speed  ETV
vector 4  scenario.node[0].appl  posx  ETV
vector 5  scenario.node[0].appl  posy  ETV
vector 22  scenario.node[1].appl  distance  ETV
vector 23  scenario.node[1].appl  relativeSpeed  ETV
vector 24  scenario.node[1].appl  nodeId  ETV
vector 28  scenario.node[1].appl  acceleration  ETV
vector 29  scenario.node[1].appl  controllerAcceleration  ETV
vector 25  scenario.node[1].appl  speed  ETV
vector 26  scenario.node[1].appl  posx  ETV
vector 27  scenario.node[1].appl  posy  ETV
vector 44  scenario.node[2].appl  distance  ETV
vector 45  scenario.node[2].appl  relativeSpeed  ETV
vector 46  scenario.node[2].appl  nodeId  ETV
vector 50  scenario.node[2].appl  acceleration  ETV
vector 51  scenario.node[2].appl  controllerAcceleration  ETV
vector 47  scenario.node[2].appl  speed  ETV
vector 48  scenario.node[2].appl  posx  ETV
vector 49  scenario.node[2].appl  posy  ETV
vector 66  scenario.node[3].appl  distance  ETV
vector 67  scenario.node[3].appl  relativeSpeed  ETV
vector 68  scenario.node[3].appl  nodeId  ETV
vector 72  scenario.node[3].appl  acceleration  ETV
vector 73  scenario.node[3].appl  controllerAcceleration  ETV
vector 69  scenario.node[3].appl  speed  ETV
vector 70  scenario.node[3].appl  posx  ETV
vector 71  scenario.node[3].appl  posy  ETV
vector 88  scenario.node[4].appl  distance  ETV
vector 89  scenario.node[4].appl  relativeSpeed  ETV
vector 90  scenario.node[4].appl  nodeId  ETV
vector 94  scenario.node[4].appl  acceleration  ETV
vector 95  scenario.node[4].appl  controllerAcceleration  ETV
vector 91  scenario.node[4].appl  speed  ETV
vector 92  scenario.node[4].appl  posx  ETV
vector 93  scenario.node[4].appl  posy  ETV
vector 110  scenario.node[5].appl  distance  ETV
vector 111  scenario.node[5].appl  relativeSpeed  ETV
vector 112  scenario.node[5].appl  nodeId  ETV
vector 116  scenario.node[5].appl  acceleration  ETV
vector 117  scenario.node[5].appl  controllerAcceleration  ETV
vector 113  scenario.node[5].appl  speed  ETV
vector 114  scenario.node[5].appl  posx  ETV
vector 115  scenario.node[5].appl  posy  ETV
vector 132  scenario.node[6].appl  distance  ETV
vector 133  scenario.node[6].appl  relativeSpeed  ETV
vector 134  scenario.node[6].appl  nodeId  ETV
vector 138  scenario.node[6].appl  acceleration  ETV
vector 139  scenario.node[6].appl  controllerAcceleration  ETV
vector 135  scenario.node[6].appl  speed  ETV
vector 136  scenario.node[6].appl  posx  ETV
vector 137  scenario.node[6].appl  posy  ETV
vector 154  scenario.node[7].appl  distance  ETV
vector 155  scenario.node[7].appl  relativeSpeed  ETV
vector 156  scenario.node[7].appl  nodeId  ETV
vector 160  scenario.node[7].appl  acceleration  ETV
vector 161  scenario.node[7].appl  controllerAcceleration  ETV
vector 157  scenario.node[7].appl  speed  ETV
vector 158  scenario.node[7].appl  posx  ETV
vector 159  scenario.node[7].appl  posy  ETV
vector 80  scenario.node[3].prot  frontDelay  ETV
vector 78  scenario.node[3].prot  frontDelayId  ETV
vector 58  scenario.node[2].prot  frontDelay  ETV
vector 56  scenario.node[2].prot  frontDelayId  ETV
vector 168  scenario.node[7].prot  frontDelay  ETV
vector 166  scenario.node[7].prot  frontDelayId  ETV
vector 35  scenario.node[1].prot  leaderDelay  ETV
vector 33  scenario.node[1].prot  leaderDelayId  ETV
vector 36  scenario.node[1].prot  frontDelay  ETV
vector 34  scenario.node[1].prot  frontDelayId  ETV
vector 57  scenario.node[2].prot  leaderDelay  ETV
vector 55  scenario.node[2].prot  leaderDelayId  ETV
vector 79  scenario.node[3].prot  leaderDelay  ETV
vector 77  scenario.node[3].prot  leaderDelayId  ETV
vector 101  scenario.node[4].prot  leaderDelay  ETV
vector 99  scenario.node[4].prot  leaderDelayId  ETV
vector 123  scenario.node[5].prot  leaderDelay  ETV
vector 121  scenario.node[5].prot  leaderDelayId  ETV
vector 145  scenario.node[6].prot  leaderDelay  ETV
vector 143  scenario.node[6].prot  leaderDelayId  ETV
vector 167  scenario.node[7].prot  leaderDelay  ETV
vector 165  scenario.node[7].prot  leaderDelayId  ETV
vector 124  scenario.node[5].prot  frontDelay  ETV
vector 122  scenario.node[5].prot  frontDelayId  ETV
vector 102  scenario.node[4].prot  frontDelay  ETV
vector 100  scenario.node[4].prot  frontDelayId  ETV
vector 146  scenario.node[6].prot  frontDelay  ETV
vector 144  scenario.node[6].prot  frontDelayId  ETV
vector 8  scenario.node[0].prot  nodeId  ETV
vector 9  scenario.node[0].prot  busyTime  ETV
vector 10  scenario.node[0].prot  collisions  ETV
vector 30  scenario.node[1].prot  nodeId  ETV
vector 31  scenario.node[1].prot  busyTime  ETV
vector 32  scenario.node[1].prot  collisions  ETV
vector 52  scenario.node[2].prot  nodeId  ETV
vector 53  scenario.node[2].prot  busyTime  ETV
vector 54  scenario.node[2].prot  collisions  ETV
vector 74  scenario.node[3].prot  nodeId  ETV
vector 75  scenario.node[3].prot  busyTime  ETV
vector 76  scenario.node[3].prot  collisions  ETV
vector 96  scenario.node[4].prot  nodeId  ETV
vector 97  scenario.node[4].prot  busyTime  ETV
vector 98  scenario.node[4].prot  collisions  ETV
vector 118  scenario.node[5].prot  nodeId  ETV
vector 119  scenario.node[5].prot  busyTime  ETV
vector 120  scenario.node[5].prot  collisions  ETV
vector 140  scenario.node[6].prot  nodeId  ETV
vector 141  scenario.node[6].prot  busyTime  ETV
vector 142  scenario.node[6].prot  collisions  ETV
vector 162  scenario.node[7].prot  nodeId  ETV
vector 163  scenario.node[7].prot  busyTime  ETV
vector 164  scenario.node[7].prot  collisions  ETV
7	11097 8156 232 190403 1.11 35.21 342 -1.5 1.5 -10.177976668406 543.85883090751
6	19253 10749 232 190403 1.11 35.21 342 -1.4722746794938 1.451340770512 -12.683107012965 366.49424999445
5	30002 6894 232 190403 1.11 35.21 342 36.55 36.55 12500.1 456878.655
4	36896 10273 232 190403 1.11 35.21 342 204.21764297459 1155.3731656885 232921.0734589 184562859.79998
3	47169 10278 232 190403 1.11 35.21 342 26.487975689908 29.742492528104 9538.8869546006 266308.04665502
1	57447 5526 232 190403 1.11 35.21 342 0 0 0 0
0	62973 5868 232 190403 1.11 35.21 342 -1 -1 -342 342
2	68841 5526 232 190403 1.11 35.21 342 0 0 0 0
10	74367 483 5102 189146 2 35 34 0 0 0 0
9	74850 654 5102 189146 2 35 34 0.022969 0.02625 0.889219 0.023266637461
8	75504 449 5102 189146 2 35 34 0 0 0 0
29	75953 10323 233 190404 1.11 35.21 342 -1.5112642291228 1.5120701307444 -11.893655110496 541.95282241266
28	86276 11069 233 190404 1.11 35.21 342 -1.4820302895274 1.4492283744282 -12.879638001867 366.71128081025
27	97345 7236 233 190404 1.11 35.21 342 36.55 36.55 12500.1 456878.655
26	104581 10617 233 190404 1.11 35.21 342 180.21764297485 1131.379076451 224700.30745171 173559767.12507
25	115198 10612 233 190404 1.11 35.21 342 26.484959834617 29.741426917503 9538.9404661301 266310.61446654
23	125810 11593 233 190404 1.11 35.21 342 -0.07106480527489 0.076625316759483 0.073319540705981 0.94567733271429
22	137403 10605 233 190404 1.11 35.21 342 19.939712208032 20.145466381539 6852.767077425 137312.15876338
24	148008 5868 233 190404 1.11 35.21 342 1 1 342 342
36	153876 13557 1032 190090 1.254913282269 35.154877428894 340 0.099909240509 0.100091242722 33.999977388175 3.3999960390235
35	167433 13557 1032 190090 1.254913282269 35.154877428894 340 0.099909240509 0.100091242722 33.999977388175 3.3999960390235
34	180990 9200 1032 190090 1.254913282269 35.154877428894 340 1 1 340 340
33	190190 9200 1032 190090 1.254913282269 35.154877428894 340 1 1 340 340
32	199390 483 5103 189147 2 35 34 0 0 0 0
31	199873 688 5103 189147 2 35 34 0.022969 0.02625 0.889219 0.023266637461
30	200561 483 5103 189147 2 35 34 1 1 34 34
51	201044 11009 234 190405 1.11 35.21 342 -1.4951715929476 1.4969403141346 -12.41726008537 529.2992167405
50	212053 11078 234 190405 1.11 35.21 342 -1.4749478849591 1.4483793295192 -12.878631140259 364.85470659131
49	223131 7236 234 190405 1.11 35.21 342 36.55 36.55 12500.1 456878.655
48	230367 10625 234 190405 1.11 35.21 342 156.21764297485 1107.4567156861 216496.34772826 162979255.78665
47	240992 10622 234 190405 1.11 35.21 342 26.488661481507 29.738423576886 9539.7171734686 266351.99245385
45	251614 11608 234 190405 1.11 35.21 342 -0.042015735631203 0.035321632278009 -0.64791095853274 0.22787132535132
44	263222 10592 234 190405 1.11 35.21 342 19.922416028114 20.070368566761 6835.9752576018 136639.45600973
46	273814 5868 234 190405 1.11 35.21 342 2 2 684 1368
58	279682 13548 900 190509 1.22965940166 35.229662730283 341 0.099987239949 0.100000243927 34.100003570173 3.4100007150305
57	293230 13543 1038 190096 1.254913362325 35.154877508691 340 0.099909240517 0.100091242737 33.999977387916 3.3999960389717
56	306773 9190 900 190509 1.22965940166 35.229662730283 341 2 2 682 1364
55	315963 9192 1038 190096 1.254913362325 35.154877508691 340 2 2 680 1360
54	325155 483 5104 189148 2 35 34 0 0 0 0
53	325638 688 5104 189148 2 35 34 0.022969 0.02625 0.889219 0.023266637461
52	326326 483 5104 189148 2 35 34 2 2 68 136
73	326809 11014 235 190406 1.11 35.21 342 -1.4890347547433 1.4892302580382 -12.653525877374 514.79057627278
72	337823 11074 235 190406 1.11 35.21 342 -1.4633940841826 1.4358250217548 -12.776268103674 358.5072667933
71	348897 7236 235 190406 1.11 35.21 342 36.55 36.55 12500.1 456878.655
70	356133 10626 235 190406 1.11 35.21 342 132.21764297485 1083.4840665317 208289.05574142 152786258.77457
69	366759 10616 235 190406 1.11 35.21 342 26.50145233166 29.728259437828 9539.9947473157 266363.12674794
67	377375 11715 235 190406 1.11 35.21 342 -0.022576863839589 0.018794910007784 -0.14878753571367 0.042652465254172
66	389090 10586 235 190406 1.11 35.21 342 19.965708993444 20.045084633357 6839.2975383164 136772.02046175
68	399676 5868 235 190406 1.11 35.21 342 3 3 1026 3078
80	405544 13593 832 190447 1.213906321605 35.213896650655 341 0.099987185793 0.100000243937 34.0999905706 3.4099981152799
79	419137 13513 1044 190102 1.25491344238 35.154877588658 340 0.099909240518 0.100091242747 33.999977387828 3.3999960389541
78	432650 9228 832 190447 1.213906321605 35.213896650655 341 3 3 1023 3069
77	441878 9156 1044 190102 1.25491344238 35.154877588658 340 3 3 1020 3060
76	451034 483 5105 189149 2 35 34 0 0 0 0
75	451517 688 5105 189149 2 35 34 0.022968 0.02625 0.889218 0.023266591524
74	452205 483 5105 189149 2 35 34 3 3 102 306
117	452688 11005 237 190408 1.11 35.21 342 -1.4897290267821 1.5 40.050430318224 500.54038260931
116	463693 11407 237 190408 1.11 35.21 342 -1.4478111731403 1.4843735350215 34.540852576314 344.65627953599
115	475100 7578 237 190408 1.11 35.21 342 36.55 36.55 12500.1 456878.655
114	482678 10944 237 190408 1.11 35.21 342 84.217642974854 1042.3538140738 191944.73862438 133725459.74157
113	493622 10959 237 190408 1.11 35.21 342 26.515093194568 31.183101295418 9610.3400209334 270441.67302241
111	504581 11788 237 190408 1.11 35.21 342 -0.038427828263298 3.4127263355231 129.86490137253 374.17351206884
110	516369 10936 237 190408 1.11 35.21 342 19.973864896653 32.893342018286 7115.9012700917 150204.73222246
112	527305 6210 237 190408 1.11 35.21 342 5 5 1710 8550
124	533515 13887 1172 190236 1.265750082823 35.165753323606 340 0.099987240401 0.100000243921 34.000003482333 3.4000006974626
123	547402 13890 1056 190114 1.254913602491 35.154877726787 340 0.09990924051 0.100091242743 33.999977365846 3.3999960345577
122	561292 9546 1172 190236 1.265750082823 35.165753323606 340 5 5 1700 8500
121	570838 9544 1056 190114 1.254913602491 35.154877726787 340 5 5 1700 8500
120	580382 517 5107 189151 2 35 34 0 0 0 0
119	580899 722 5107 189151 2 35 34 0.022968 0.02625 0.889218 0.023266591524
118	581621 517 5107 189151 2 35 34 5 5 170 850
139	582138 11304 238 190409 1.11 35.21 342 -1.4807666972706 1.5050357244776 18.756679113761 475.27692846238
138	593442 11416 238 190409 1.11 35.21 342 -1.4505591798457 1.4413190288415 15.174503445359 330.73814045585
137	604858 7578 238 190409 1.11 35.21 342 36.55 36.55 12500.1 456878.655
136	612436 10957 238 190409 1.11 35.21 342 60.217642974853 1015.2089033449 183702.24029952 124640942.41922
135	623393 10956 238 190409 1.11 35.21 342 26.508951816254 29.713639746548 9578.2159064676 268522.85797748
133	634349 11915 238 190409 1.11 35.21 342 -0.019950013515452 1.9120049400183 31.778705940103 43.96524008109
132	646264 10934 238 190409 1.11 35.21 342 19.991561007854 23.106462119322 6873.8558425679 138218.18716765
134	657198 6210 238 190409 1.11 35.21 342 6 6 2052 12312
146	663408 13894 1312 190365 1.305160322989 35.205163443857 340 0.099987240083 0.100000243926 34.000003362418 3.4000006734796
145	677302 13892 1062 190120 1.254913682546 35.154877816949 340 0.099909240511 0.100091242741 33.999977375953 3.3999960365791
144	691194 9551 1312 190365 1.305160322989 35.205163443857 340 6 6 2040 12240
143	700745 9546 1062 190120 1.254913682546 35.154877816949 340 6 6 2040 12240
142	710291 517 5108 189152 2 35 34 0 0 0 0
141	710808 722 5108 189152 2 35 34 0.022969 0.02625 0.889219 0.023266637461
140	711530 517 5108 189152 2 35 34 6 6 204 1224
161	712047 11290 239 190410 1.11 35.21 342 -1.493537332609 1.5005617605849 6.7397583946841 498.00880381327
160	723337 11440 239 190410 1.11 35.21 342 -1.4563373264433 1.4382184683164 3.4934170877978 335.36116391757
159	734777 7578 239 190410 1.11 35.21 342 36.55 36.55 12500.1 456878.655
158	742355 10950 239 190410 1.11 35.21 342 36.217641067505 989.50230317606 175475.00201505 115984217.54658
157	753305 10956 239 190410 1.11 35.21 342 26.505787416703 29.718245299553 9560.7418311567 267517.58070664
155	764261 12093 239 190410 1.11 35.21 342 -0.0092142787050875 1.1522098975247 17.322330276379 13.562887955301
154	776354 10963 239 190410 1.11 35.21 342 19.980359088947 21.683397228229 6858.8888029599 137573.41982219
156	787317 6210 239 190410 1.11 35.21 342 7 7 2394 16758
168	793527 13890 975 190027 1.254434801937 35.154437966288 340 0.099987240242 0.10000024393 34.000003405901 3.400000682176
167	807417 13910 1068 190126 1.254913762602 35.154877902465 340 0.099909240517 0.100091242748 33.999977381413 3.3999960376711
166	821327 9551 975 190027 1.254434801937 35.154437966288 340 7 7 2380 16660
165	830878 9554 1068 190126 1.254913762602 35.154877902465 340 7 7 2380 16660
164	840432 517 5109 189153 2 35 34 0 0 0 0
163	840949 722 5109 189153 2 35 34 0.022969 0.02625 0.889219 0.023266637461
162	841671 517 5109 189153 2 35 34 7 7 238 1666
88	842188 10630 236 190549 1.11 35.24 343 0 20.02476109234 6493.8227524195 127099.43850491
89	852818 11689 236 190549 1.11 35.24 343 -7.558152344596 0.013417881691584 -208.26800712604 1092.8102553956
90	864507 5886 236 190549 1.11 35.24 343 4 4 1372 5488
91	870393 10663 236 190549 1.11 35.24 343 26.512094961906 34.048892566734 9774.8812573449 279712.2979335
92	881056 10638 236 190549 1.11 35.24 343 108.21764297485 1080.3253764538 201511.5751178 144875281.06223
93	891694 7258 236 190549 1.11 35.24 343 36.55 36.55 12536.65 458214.5575
94	898952 11080 236 190549 1.11 35.24 343 -1.4529610539146 2.4999999999999 63.720184480707 459.42273666205
95	910032 11026 236 190549 1.11 35.24 343 -1.482146824282 5.8108946192673 113.07360778844 1008.1914826524
96	921058 483 5106 189150 2 35 34 4 4 136 544
97	921541 688 5106 189150 2 35 34 0.022969 0.02625 0.889219 0.023266637461
98	922229 483 5106 189150 2 35 34 0 0 0 0
99	922712 9208 1050 190108 1.254913522436 35.154877604103 340 4 4 1360 5440
100	931920 9549 1246 190299 1.303564162878 35.203554230217 340 4 4 1360 5440
101	941469 13895 1050 190108 1.254913522436 35.154877604103 340 0.099909240516 0.100091242749 33.999977323217 3.3999960260318
102	955364 13896 1246 190299 1.303564162878 35.203554230217 340 0.09998721838 0.100000243924 33.999990308889 3.3999980629368
