file 909296 1512142077                                          
version 2
run SinusoidalSpeedInjectionAttack-143-20171201-16:27:40-42509
attr CACCSpacing 5
attr attackAcc -30
attr attackPos 7
attr attackSpeed 50
attr attackStart 30
attr attacker 3
attr beaconInterval 0.1
attr configname SinusoidalSpeedInjectionAttack
attr controller 1
attr datetime 20171201-16:27:40
attr experiment SinusoidalSpeedInjectionAttack
attr fakeAcc "(3 == 4)"
attr fakePos "(3 == 2)"
attr fakeSpeed "(3 == 3)"
attr inifile omnetpp_143.ini
attr iterationvars "$attacker=3, $attackSpeed=50, $attackPos=7, $attackAcc=-30, $leaderSpeed=100, $controller=1, $CACCSpacing=5, $sController=\"CACC\", $attackStart=30, $0=5, $1=0, $nCars=8, $platoonSize=8, $nLanes=1, $beaconInterval=0.1, $priority=2, $packetSize=200, $ploegH=0.5, $leaderHeadway=1.2, $fakeSpeed=(3 == 3), $fakeAcc=(3 == 4), $fakePos=(3 == 2)"
attr iterationvarsf attacker=3,attackSpeed=50,attackPos=7,attackAcc=-30,leaderSpeed=100,controller=1,CACCSpacing=5,sController=CACC,attackStart=30,5,0,nCars=8,platoonSize=8,nLanes=1,beaconInterval=0.1,priority=2,packetSize=200,ploegH=0.5,leaderHeadway=1.2,fakeSpeed=(3_==_3),fakeAcc=(3_==_4),fakePos=(3_==_2)-
attr leaderHeadway 1.2
attr leaderSpeed 100
attr measurement "$attacker=3, $attackSpeed=50, $attackPos=7, $attackAcc=-30, $leaderSpeed=100, $controller=1, $CACCSpacing=5, $sController=\"CACC\", $attackStart=30, $0=5, $1=0, $nCars=8, $platoonSize=8, $nLanes=1, $beaconInterval=0.1, $priority=2, $packetSize=200, $ploegH=0.5, $leaderHeadway=1.2, $fakeSpeed=(3 == 3), $fakeAcc=(3 == 4), $fakePos=(3 == 2)"
attr nCars 8
attr nLanes 1
attr network scenario
attr packetSize 200
attr platoonSize 8
attr ploegH 0.5
attr priority 2
attr processid 42509
attr repetition 3
attr replication #3
attr resultdir results
attr runnumber 143
attr sController "\"CACC\""
attr seedset 3
param **.coreDebug false
param **.debug false
param **.headway 0.1s
param **.numberOfCars 8
param **.numberOfCarsPerPlatoon 8
param **.numberOfLanes 1
param **.numericController 1
param **.traffic.nCars 8
param **.traffic.nLanes 1
param **.traffic.platoonInsertDistance 5m
param **.traffic.platoonInsertHeadway 0s
param **.traffic.platoonInsertSpeed 100kmph
param **.traffic.platoonInsertTime "1 s"
param **.traffic.platoonLeaderHeadway 1.2s
param **.traffic.platoonSize 8
param **.traffic.platooningVType "\"vtypeauto\""
param **.traffic_type "\"PlatoonsTrafficManager\""
param *.**.nic.mac1609_4.bitrate 6Mbps
param *.**.nic.mac1609_4.txPower 100mW
param *.**.nic.mac1609_4.useServiceChannel false
param *.**.nic.phy80211p.analogueModels "xmldoc(\"config.xml\")"
param *.**.nic.phy80211p.decider "xmldoc(\"config.xml\")"
param *.**.nic.phy80211p.maxTXPower 100mW
param *.**.nic.phy80211p.sensitivity -94dBm
param *.**.nic.phy80211p.thermalNoise -95dBm
param *.**.nic.phy80211p.usePropagationDelay true
param *.**.nic.phy80211p.useThermalNoise true
param *.annotations.draw false
param *.connectionManager.alpha 2.0
param *.connectionManager.carrierFrequency "5.890e9 Hz"
param *.connectionManager.pMax 100mW
param *.connectionManager.sat -94dBm
param *.connectionManager.sendDirect true
param *.manager.autoShutdown true
param *.manager.commandLine "\"sumo --remote-port $port --seed $seed --configuration-file $configFile\""
param *.manager.configFile "\"./sumocfg/freeway.sumo.cfg\""
param *.manager.host "\"localhost\""
param *.manager.margin 25
param *.manager.moduleDisplayString "\"\""
param *.manager.moduleName "\"node\""
param *.manager.moduleType "\"Car\""
param *.manager.updateInterval 0.01s
param *.node[*].appl.attackStart 30s
param *.node[*].appl.attackerType 3
param *.node[*].appl.simulationDuration "60 s"
param *.node[*].appl_type "\"SimplePlatooningApp\""
param *.node[*].helper.nCars 8
param *.node[*].helper.nLanes 1
param *.node[*].helper.platoonSize 8
param *.node[*].helper_type "\"PositionHelper\""
param *.node[*].mobility.x 0
param *.node[*].mobility.y 0
param *.node[*].mobility.z 1.895
param *.node[*].prot.attackStart 30s
param *.node[*].prot.attackerType 3
param *.node[*].prot.attackingNode 3
param *.node[*].prot.beaconingInterval 0.1s
param *.node[*].prot.fakeAcc "(3 == 4)"
param *.node[*].prot.fakePos "(3 == 2)"
param *.node[*].prot.fakeSpeed "(3 == 3)"
param *.node[*].prot.maliciousAcc "-30 mpss"
param *.node[*].prot.maliciousSpeed 50kmph
param *.node[*].prot.packetSize 200
param *.node[*].prot.priority 2
param *.node[*].prot.shiftX "7 m"
param *.node[*].prot.useControllerAcceleration true
param *.node[*].protocol_type "\"SimplePlatooningBeaconing\""
param *.node[*].scenario.accHeadway 0.1s
param *.node[*].scenario.caccC1 0.5
param *.node[*].scenario.caccOmegaN "0.2 Hz"
param *.node[*].scenario.caccSpacing 5m
param *.node[*].scenario.caccXi 1
param *.node[*].scenario.controller "\"CACC\""
param *.node[*].scenario.engineTau "0.5 s"
param *.node[*].scenario.leaderHeadway 1.2s
param *.node[*].scenario.leaderSpeed 100kmph
param *.node[*].scenario.ploegH 0.5s
param *.node[*].scenario.ploegKd 0.7
param *.node[*].scenario.ploegKp 0.2
param *.node[*].scenario.useRealisticEngine false
param *.node[*].scenario_type "\"SinusoidalScenario\""
param *.node[*].unicast.packetLossRate 0
param *.obstacles.debug false
param *.playgroundSizeX 65000m
param *.playgroundSizeY 25000m
param *.playgroundSizeZ 50m
param *.world.use2D false
param *.world.useTorus false

vector 0  scenario.node[0].appl  distance  ETV
vector 1  scenario.node[0].appl  relativeSpeed  ETV
vector 2  scenario.node[0].appl  nodeId  ETV
vector 6  scenario.node[0].appl  acceleration  ETV
vector 7  scenario.node[0].appl  controllerAcceleration  ETV
vector 3  scenario.node[0].appl  speed  ETV
vector 4  scenario.node[0].appl  posx  ETV
vector 5  scenario.node[0].appl  posy  ETV
vector 22  scenario.node[1].appl  distance  ETV
vector 23  scenario.node[1].appl  relativeSpeed  ETV
vector 24  scenario.node[1].appl  nodeId  ETV
vector 28  scenario.node[1].appl  acceleration  ETV
vector 29  scenario.node[1].appl  controllerAcceleration  ETV
vector 25  scenario.node[1].appl  speed  ETV
vector 26  scenario.node[1].appl  posx  ETV
vector 27  scenario.node[1].appl  posy  ETV
vector 44  scenario.node[2].appl  distance  ETV
vector 45  scenario.node[2].appl  relativeSpeed  ETV
vector 46  scenario.node[2].appl  nodeId  ETV
vector 50  scenario.node[2].appl  acceleration  ETV
vector 51  scenario.node[2].appl  controllerAcceleration  ETV
vector 47  scenario.node[2].appl  speed  ETV
vector 48  scenario.node[2].appl  posx  ETV
vector 49  scenario.node[2].appl  posy  ETV
vector 66  scenario.node[3].appl  distance  ETV
vector 67  scenario.node[3].appl  relativeSpeed  ETV
vector 68  scenario.node[3].appl  nodeId  ETV
vector 72  scenario.node[3].appl  acceleration  ETV
vector 73  scenario.node[3].appl  controllerAcceleration  ETV
vector 69  scenario.node[3].appl  speed  ETV
vector 70  scenario.node[3].appl  posx  ETV
vector 71  scenario.node[3].appl  posy  ETV
vector 88  scenario.node[4].appl  distance  ETV
vector 89  scenario.node[4].appl  relativeSpeed  ETV
vector 90  scenario.node[4].appl  nodeId  ETV
vector 94  scenario.node[4].appl  acceleration  ETV
vector 95  scenario.node[4].appl  controllerAcceleration  ETV
vector 91  scenario.node[4].appl  speed  ETV
vector 92  scenario.node[4].appl  posx  ETV
vector 93  scenario.node[4].appl  posy  ETV
vector 110  scenario.node[5].appl  distance  ETV
vector 111  scenario.node[5].appl  relativeSpeed  ETV
vector 112  scenario.node[5].appl  nodeId  ETV
vector 116  scenario.node[5].appl  acceleration  ETV
vector 117  scenario.node[5].appl  controllerAcceleration  ETV
vector 113  scenario.node[5].appl  speed  ETV
vector 114  scenario.node[5].appl  posx  ETV
vector 115  scenario.node[5].appl  posy  ETV
vector 132  scenario.node[6].appl  distance  ETV
vector 133  scenario.node[6].appl  relativeSpeed  ETV
vector 134  scenario.node[6].appl  nodeId  ETV
vector 138  scenario.node[6].appl  acceleration  ETV
vector 139  scenario.node[6].appl  controllerAcceleration  ETV
vector 135  scenario.node[6].appl  speed  ETV
vector 136  scenario.node[6].appl  posx  ETV
vector 137  scenario.node[6].appl  posy  ETV
vector 154  scenario.node[7].appl  distance  ETV
vector 155  scenario.node[7].appl  relativeSpeed  ETV
vector 156  scenario.node[7].appl  nodeId  ETV
vector 160  scenario.node[7].appl  acceleration  ETV
vector 161  scenario.node[7].appl  controllerAcceleration  ETV
vector 157  scenario.node[7].appl  speed  ETV
vector 158  scenario.node[7].appl  posx  ETV
vector 159  scenario.node[7].appl  posy  ETV
vector 35  scenario.node[1].prot  leaderDelay  ETV
vector 33  scenario.node[1].prot  leaderDelayId  ETV
vector 36  scenario.node[1].prot  frontDelay  ETV
vector 34  scenario.node[1].prot  frontDelayId  ETV
vector 57  scenario.node[2].prot  leaderDelay  ETV
vector 55  scenario.node[2].prot  leaderDelayId  ETV
vector 79  scenario.node[3].prot  leaderDelay  ETV
vector 77  scenario.node[3].prot  leaderDelayId  ETV
vector 101  scenario.node[4].prot  leaderDelay  ETV
vector 99  scenario.node[4].prot  leaderDelayId  ETV
vector 123  scenario.node[5].prot  leaderDelay  ETV
vector 121  scenario.node[5].prot  leaderDelayId  ETV
vector 145  scenario.node[6].prot  leaderDelay  ETV
vector 143  scenario.node[6].prot  leaderDelayId  ETV
vector 167  scenario.node[7].prot  leaderDelay  ETV
vector 165  scenario.node[7].prot  leaderDelayId  ETV
vector 168  scenario.node[7].prot  frontDelay  ETV
vector 166  scenario.node[7].prot  frontDelayId  ETV
vector 58  scenario.node[2].prot  frontDelay  ETV
vector 56  scenario.node[2].prot  frontDelayId  ETV
vector 124  scenario.node[5].prot  frontDelay  ETV
vector 122  scenario.node[5].prot  frontDelayId  ETV
vector 80  scenario.node[3].prot  frontDelay  ETV
vector 78  scenario.node[3].prot  frontDelayId  ETV
vector 146  scenario.node[6].prot  frontDelay  ETV
vector 144  scenario.node[6].prot  frontDelayId  ETV
vector 102  scenario.node[4].prot  frontDelay  ETV
vector 100  scenario.node[4].prot  frontDelayId  ETV
vector 8  scenario.node[0].prot  nodeId  ETV
vector 9  scenario.node[0].prot  busyTime  ETV
vector 10  scenario.node[0].prot  collisions  ETV
vector 30  scenario.node[1].prot  nodeId  ETV
vector 31  scenario.node[1].prot  busyTime  ETV
vector 32  scenario.node[1].prot  collisions  ETV
vector 52  scenario.node[2].prot  nodeId  ETV
vector 53  scenario.node[2].prot  busyTime  ETV
vector 54  scenario.node[2].prot  collisions  ETV
vector 74  scenario.node[3].prot  nodeId  ETV
vector 75  scenario.node[3].prot  busyTime  ETV
vector 76  scenario.node[3].prot  collisions  ETV
vector 96  scenario.node[4].prot  nodeId  ETV
vector 97  scenario.node[4].prot  busyTime  ETV
vector 98  scenario.node[4].prot  collisions  ETV
vector 118  scenario.node[5].prot  nodeId  ETV
vector 119  scenario.node[5].prot  busyTime  ETV
vector 120  scenario.node[5].prot  collisions  ETV
vector 140  scenario.node[6].prot  nodeId  ETV
vector 141  scenario.node[6].prot  busyTime  ETV
vector 142  scenario.node[6].prot  collisions  ETV
vector 162  scenario.node[7].prot  nodeId  ETV
vector 163  scenario.node[7].prot  busyTime  ETV
vector 164  scenario.node[7].prot  collisions  ETV
7	11083 7632 232 178133 1.11 33.01 320 -1.5 1.5 6.2460186867345 505.05984025099
6	18715 10041 232 178133 1.11 33.01 320 -1.4722746794938 1.451340770512 10.778916181667 336.85162534243
5	28756 6432 232 178133 1.11 33.01 320 36.55 36.55 11696 427488.8
4	35188 9597 232 178133 1.11 33.01 320 105.1237327573 995.6575992132 176418.35092951 118510089.60287
3	44785 9597 232 178133 1.11 33.01 320 26.488037261118 29.742492528104 8933.4999703147 249635.72131114
1	54382 5152 232 178133 1.11 33.01 320 0 0 0 0
0	59534 5472 232 178133 1.11 33.01 320 -1 -1 -320 320
2	65006 5152 232 178133 1.11 33.01 320 0 0 0 0
10	70158 453 5056 177944 2 33 32 0 0 0 0
9	70611 828 5056 177944 2 33 32 0.022754155264 0.026262199507 0.836504005434 0.021878681534671
8	71439 421 5056 177944 2 33 32 0 0 0 0
29	71860 10290 233 178134 1.11 33.01 320 -1.5233934266307 1.5241492081013 7.4445918400749 510.66744575954
28	82150 10340 233 178134 1.11 33.01 320 -1.4872877099247 1.4632119897342 11.41699305118 340.14935715156
27	92490 6752 233 178134 1.11 33.01 320 36.55 36.55 11696 427488.8
26	99242 9912 233 178134 1.11 33.01 320 96.123732757568 986.5800662252 173535.34664994 115358012.0665
25	109154 9910 233 178134 1.11 33.01 320 26.480495436544 29.7479049181 8932.7466256927 249596.04375338
23	119064 10822 233 178134 1.11 33.01 320 -0.085370607543855 0.085492920015213 0.64555546019109 1.221552195302
22	129886 9925 233 178134 1.11 33.01 320 4.9094713916734 5.1291544591456 1602.9892126736 8031.0654507874
24	139811 5472 233 178134 1.11 33.01 320 1 1 320 320
36	145283 12644 836 177616 1.269557810561 32.969562344465 318 0.09999877886 0.100011858434 31.800003314444 3.1800006674807
35	157927 12644 836 177616 1.269557810561 32.969562344465 318 0.09999877886 0.100011858434 31.800003314444 3.1800006674807
34	170571 8585 836 177616 1.269557810561 32.969562344465 318 1 1 318 318
33	179156 8585 836 177616 1.269557810561 32.969562344465 318 1 1 318 318
32	187741 453 5057 177945 2 33 32 0 0 0 0
31	188194 862 5057 177945 2 33 32 0.022754185285 0.026262199235 0.836504035717 0.021878682914624
30	189056 453 5057 177945 2 33 32 1 1 32 32
51	189509 10305 234 178135 1.11 33.01 320 -1.5293286426574 1.5293868312278 7.4895873782127 512.18977071501
50	199814 10350 234 178135 1.11 33.01 320 -1.4784118018742 1.4535038994509 11.472093529878 336.87034003602
49	210164 6752 234 178135 1.11 33.01 320 36.55 36.55 11696 427488.8
48	216916 9925 234 178135 1.11 33.01 320 87.123736572266 977.56185696571 170654.02736273 112259312.30259
47	226841 9926 234 178135 1.11 33.01 320 26.486433744786 29.741726885622 8932.5660848736 249583.53164442
45	236767 11046 234 178135 1.11 33.01 320 -0.011889281771836 0.011086342038105 0.066370888556861 0.011330782396435
44	247813 9930 234 178135 1.11 33.01 320 4.9825737970804 5.0363330005423 1601.3156763929 8013.2188879949
46	257743 5472 234 178135 1.11 33.01 320 2 2 640 1280
58	263215 12659 1046 177820 1.299189200831 32.999193745229 318 0.099998778849 0.10001188167 31.800003324938 3.1800006695803
57	275874 12646 842 177622 1.269557840582 32.969562374547 318 0.099998778859 0.100011858438 31.800003314505 3.1800006674929
56	288520 8591 1046 177820 1.299189200831 32.999193745229 318 2 2 636 1272
55	297111 8583 842 177622 1.269557840582 32.969562374547 318 2 2 636 1272
54	305694 453 5058 177946 2 33 32 0 0 0 0
53	306147 860 5058 177946 2 33 32 0.022754215306 0.026262199165 0.836504065799 0.021878684284032
52	307007 453 5058 177946 2 33 32 2 2 64 128
73	307460 10277 235 178136 1.11 33.01 320 -1.4888887521661 1.4893729040721 8.1952421311187 476.83632558555
72	317737 10338 235 178136 1.11 33.01 320 -1.4638941744185 1.4373649686267 11.562912586463 329.75065586499
71	328075 6752 235 178136 1.11 33.01 320 36.55 36.55 11696 427488.8
70	334827 9924 235 178136 1.11 33.01 320 78.123736572266 968.5260699083 167772.65132331 109212934.8927
69	344751 9924 235 178136 1.11 33.01 320 26.50134495605 29.728229054346 8932.2108410683 249558.81571438
67	354675 10843 235 178136 1.11 33.01 320 -0.037725854740227 0.033958277041716 0.24052286993078 0.1364759561673
66	365518 9885 235 178136 1.11 33.01 320 4.9599643548233 5.0696736727892 1601.3689345451 8013.9249297781
68	375403 5472 235 178136 1.11 33.01 320 3 3 960 2880
80	380875 12662 1180 177969 1.300210350935 33.000214964342 318 0.099998778852 0.100011894306 31.800003393947 3.1800006833827
79	393537 12651 848 177628 1.269557870602 32.969562404688 318 0.099998778857 0.100011858449 31.800003314626 3.1800006675171
78	406188 8588 1180 177969 1.300210350935 33.000214964342 318 3 3 954 2862
77	414776 8594 848 177628 1.269557870602 32.969562404688 318 3 3 954 2862
76	423370 453 5059 177947 2 33 32 0 0 0 0
75	423823 859 5059 177947 2 33 32 0.022753185285 0.026262199305 0.836503035658 0.021878637404158
74	424682 453 5059 177947 2 33 32 3 3 96 288
95	425135 10297 236 178137 1.11 33.01 320 -2.9213137259707 1.4833558258224 -69.702361435004 530.11827053959
94	435432 10345 236 178137 1.11 33.01 320 -2.3663960783619 1.427517153359 -59.733994693304 372.65396670004
93	445777 6752 236 178137 1.11 33.01 320 36.55 36.55 11696 427488.8
92	452529 9926 236 178137 1.11 33.01 320 69.123736572266 949.09452082375 164788.08040772 106024703.49001
91	462455 9906 236 178137 1.11 33.01 320 21.904018234806 29.714956172217 8825.4106925353 244025.8529369
89	472361 10955 236 178137 1.11 33.01 320 -0.012164313716085 7.0650392274484 106.68451940717 531.89014207745
88	483316 9878 236 178137 1.11 33.01 320 4.98505643639 15.290370828291 1702.4349126166 9675.5262620473
90	493194 5472 236 178137 1.11 33.01 320 4 4 1280 5120
102	498666 12988 1312 178107 1.306028501039 33.006020185262 318 0.099907778972 0.100089782295 31.799925464763 3.1799856402171
101	511654 12969 854 177634 1.269557900623 32.969562468331 318 0.099998778855 0.100011860486 31.800003348248 3.1800006742415
100	524623 8917 1312 178107 1.306028501039 33.006020185262 318 4 4 1272 5088
99	533540 8595 854 177634 1.269557900623 32.969562468331 318 4 4 1272 5088
98	542135 453 5060 177948 2 33 32 0 0 0 0
97	542588 863 5060 177948 2 33 32 0.022754155264 0.026262199361 0.836503971313 0.021878679743408
96	543451 453 5060 177948 2 33 32 4 4 128 512
139	543904 10600 238 178139 1.11 33.01 320 -2.496678512 1.4846826986197 -20.97167985532 458.60765186172
138	554504 10671 238 178139 1.11 33.01 320 -1.6649558435539 1.4280810607264 -13.177930078055 305.93250865512
137	565175 7072 238 178139 1.11 33.01 320 36.55 36.55 11696 427488.8
136	572247 10241 238 178139 1.11 33.01 320 51.123734664917 938.53419333241 159101.77888424 100333443.40376
135	582488 10239 238 178139 1.11 33.01 320 26.478163549469 29.71147884354 8901.4331249152 247851.59380554
133	592727 11107 238 178139 1.11 33.01 320 -1.7031978387782 0.046328186689518 -25.351299336579 31.804810502296
132	603834 10238 238 178139 1.11 33.01 320 2.5293656166911 5.0375578761627 1577.8269773387 7814.8673365642
134	614072 5792 238 178139 1.11 33.01 320 6 6 1920 11520
146	619864 12965 1249 178038 1.305615440997 33.005607064164 318 0.099998778836 0.100011830936 31.799990403707 3.1799980851948
145	632829 12975 866 177646 1.269557960665 32.969562504327 318 0.099998778853 0.100011859087 31.800003324202 3.1800006694323
144	645804 8906 1249 178038 1.305615440997 33.005607064164 318 6 6 1908 11448
143	654710 8911 866 177646 1.269557960665 32.969562504327 318 6 6 1908 11448
142	663621 485 5062 177950 2 33 32 0 0 0 0
141	664106 894 5062 177950 2 33 32 0.022754095223 0.026262199288 0.836503935778 0.021878678297544
140	665000 485 5062 177950 2 33 32 6 6 192 1152
161	665485 10630 239 178140 1.11 33.01 320 -2.2449956247403 1.5049027577872 -10.161908628393 481.44526006912
160	676115 10698 239 178140 1.11 33.01 320 -1.4497273646167 1.4254867382512 -2.4041081387455 308.38831069246
159	686813 7072 239 178140 1.11 33.01 320 36.55 36.55 11696 427488.8
158	693885 10233 239 178140 1.11 33.01 320 42.123735618591 930.97953546304 156234.39653862 97519702.063797
157	704118 10244 239 178140 1.11 33.01 320 26.51290552236 29.708149860435 8916.261912728 248658.61986278
155	714362 11349 239 178140 1.11 33.01 320 -1.0472091352255 0.0045407892561187 -14.697008511992 10.559006574436
154	725711 10237 239 178140 1.11 33.01 320 3.575935043239 5.0189441838257 1587.6789213759 7888.7148486332
156	735948 5792 239 178140 1.11 33.01 320 7 7 2240 15680
168	741740 12974 980 177760 1.292107050727 32.992098580316 318 0.099998778853 0.100011826349 31.799990310129 3.1799980664792
167	754714 12970 872 177652 1.269557990685 32.969562529704 318 0.099998778853 0.100011858795 31.800003319559 3.1800006685037
166	767684 8909 980 177760 1.292107050727 32.992098580316 318 7 7 2226 15582
165	776593 8903 872 177652 1.269557990685 32.969562529704 318 7 7 2226 15582
164	785496 485 5063 177951 2 33 32 0 0 0 0
163	785981 893 5063 177951 2 33 32 0.022754065202 0.026262199331 0.836503910508 0.021878677180759
162	786874 485 5063 177951 2 33 32 7 7 224 1568
110	787359 10235 237 178147 1.11 33.04 321 0 5.0187625636247 1549.9949947913 7659.2643284286
111	797594 11193 237 178147 1.11 33.04 321 -2.8930966511977 0.019160268250925 -52.660847612401 117.25598076104
112	808787 5811 237 178147 1.11 33.04 321 5 5 1605 8025
113	814598 10272 237 178147 1.11 33.04 321 24.746770233555 29.705511400843 8900.522553677 247114.33039774
114	824870 10270 237 178147 1.11 33.04 321 60.123736572266 945.77148973602 162904.86420449 104074824.53071
115	835140 7095 237 178147 1.11 33.04 321 36.55 36.55 11732.55 428824.7025
116	842235 10734 237 178147 1.11 33.04 321 -2.1118888142492 1.422156913009 -32.71610233253 314.57217030044
117	852969 10702 237 178147 1.11 33.04 321 -2.8531193290343 1.5049213357984 -45.520717099921 494.92097116466
118	863671 485 5061 177949 2 33 32 5 5 160 800
119	864156 890 5061 177949 2 33 32 0.022753125244 0.026262199367 0.836502957558 0.021878633723868
120	865046 485 5061 177949 2 33 32 0 0 0 0
121	865531 8917 860 177640 1.269557930644 32.969562482376 318 5 5 1590 7950
122	874448 8902 1112 177886 1.299602290893 32.99959385347 318 5 5 1590 7950
123	883350 12977 860 177640 1.269557930644 32.969562482376 318 0.099998778852 0.10001185959 31.800003332272 3.1800006710463
124	896327 12969 1112 177886 1.299602290893 32.99959385347 318 0.099998778842 0.100011833865 31.799990343117 3.179998073077
