file 904665 1501696776                                          
version 2
run SinusoidalSpeedInjectionAttack-280-20170802-19:59:19-309
attr CACCSpacing 5
attr attackAcc -30
attr attackPos 7
attr attackSpeed 150
attr attackStart 30
attr attacker 3
attr beaconInterval 0.1
attr configname SinusoidalSpeedInjectionAttack
attr controller 1
attr datetime 20170802-19:59:19
attr experiment SinusoidalSpeedInjectionAttack
attr fakeAcc "(3 == 4)"
attr fakePos "(3 == 2)"
attr fakeSpeed "(3 == 3)"
attr inifile omnetpp_280.ini
attr iterationvars "$attacker=3, $attackSpeed=150, $attackPos=7, $attackAcc=-30, $leaderSpeed=150, $controller=1, $CACCSpacing=5, $sController=\"CACC\", $attackStart=30, $0=5, $1=0, $nCars=8, $platoonSize=8, $nLanes=1, $beaconInterval=0.1, $priority=2, $packetSize=200, $ploegH=0.5, $leaderHeadway=1.2, $fakeSpeed=(3 == 3), $fakeAcc=(3 == 4), $fakePos=(3 == 2)"
attr iterationvarsf attacker=3,attackSpeed=150,attackPos=7,attackAcc=-30,leaderSpeed=150,controller=1,CACCSpacing=5,sController=CACC,attackStart=30,5,0,nCars=8,platoonSize=8,nLanes=1,beaconInterval=0.1,priority=2,packetSize=200,ploegH=0.5,leaderHeadway=1.2,fakeSpeed=(3_==_3),fakeAcc=(3_==_4),fakePos=(3_==_2)-
attr leaderHeadway 1.2
attr leaderSpeed 150
attr measurement "$attacker=3, $attackSpeed=150, $attackPos=7, $attackAcc=-30, $leaderSpeed=150, $controller=1, $CACCSpacing=5, $sController=\"CACC\", $attackStart=30, $0=5, $1=0, $nCars=8, $platoonSize=8, $nLanes=1, $beaconInterval=0.1, $priority=2, $packetSize=200, $ploegH=0.5, $leaderHeadway=1.2, $fakeSpeed=(3 == 3), $fakeAcc=(3 == 4), $fakePos=(3 == 2)"
attr nCars 8
attr nLanes 1
attr network scenario
attr packetSize 200
attr platoonSize 8
attr ploegH 0.5
attr priority 2
attr processid 309
attr repetition 0
attr replication #0
attr resultdir results
attr runnumber 280
attr sController "\"CACC\""
attr seedset 0
param **.coreDebug false
param **.debug false
param **.headway 0.1s
param **.numberOfCars 8
param **.numberOfCarsPerPlatoon 8
param **.numberOfLanes 1
param **.numericController 1
param **.traffic.nCars 8
param **.traffic.nLanes 1
param **.traffic.platoonInsertDistance 5m
param **.traffic.platoonInsertHeadway 0s
param **.traffic.platoonInsertSpeed 150kmph
param **.traffic.platoonInsertTime "1 s"
param **.traffic.platoonLeaderHeadway 1.2s
param **.traffic.platoonSize 8
param **.traffic.platooningVType "\"vtypeauto\""
param **.traffic_type "\"PlatoonsTrafficManager\""
param *.**.nic.mac1609_4.bitrate 6Mbps
param *.**.nic.mac1609_4.txPower 100mW
param *.**.nic.mac1609_4.useServiceChannel false
param *.**.nic.phy80211p.analogueModels "xmldoc(\"config.xml\")"
param *.**.nic.phy80211p.decider "xmldoc(\"config.xml\")"
param *.**.nic.phy80211p.maxTXPower 100mW
param *.**.nic.phy80211p.sensitivity -94dBm
param *.**.nic.phy80211p.thermalNoise -95dBm
param *.**.nic.phy80211p.usePropagationDelay true
param *.**.nic.phy80211p.useThermalNoise true
param *.annotations.draw false
param *.connectionManager.alpha 2.0
param *.connectionManager.carrierFrequency "5.890e9 Hz"
param *.connectionManager.pMax 100mW
param *.connectionManager.sat -94dBm
param *.connectionManager.sendDirect true
param *.manager.autoShutdown true
param *.manager.commandLine "\"sumo --remote-port $port --seed $seed --configuration-file $configFile\""
param *.manager.configFile "\"./sumocfg/freeway.sumo.cfg\""
param *.manager.host "\"localhost\""
param *.manager.margin 25
param *.manager.moduleDisplayString "\"\""
param *.manager.moduleName "\"node\""
param *.manager.moduleType "\"Car\""
param *.manager.updateInterval 0.01s
param *.node[*].appl.attackStart 30s
param *.node[*].appl.attackerType 3
param *.node[*].appl.simulationDuration "60 s"
param *.node[*].appl_type "\"SimplePlatooningApp\""
param *.node[*].helper.nCars 8
param *.node[*].helper.nLanes 1
param *.node[*].helper.platoonSize 8
param *.node[*].helper_type "\"PositionHelper\""
param *.node[*].mobility.x 0
param *.node[*].mobility.y 0
param *.node[*].mobility.z 1.895
param *.node[*].prot.attackStart 30s
param *.node[*].prot.attackerType 3
param *.node[*].prot.attackingNode 3
param *.node[*].prot.beaconingInterval 0.1s
param *.node[*].prot.fakeAcc "(3 == 4)"
param *.node[*].prot.fakePos "(3 == 2)"
param *.node[*].prot.fakeSpeed "(3 == 3)"
param *.node[*].prot.maliciousAcc "-30 mpss"
param *.node[*].prot.maliciousSpeed 150kmph
param *.node[*].prot.packetSize 200
param *.node[*].prot.priority 2
param *.node[*].prot.shiftX "7 m"
param *.node[*].prot.useControllerAcceleration true
param *.node[*].protocol_type "\"SimplePlatooningBeaconing\""
param *.node[*].scenario.accHeadway 0.1s
param *.node[*].scenario.caccC1 0.5
param *.node[*].scenario.caccOmegaN "0.2 Hz"
param *.node[*].scenario.caccSpacing 5m
param *.node[*].scenario.caccXi 1
param *.node[*].scenario.controller "\"CACC\""
param *.node[*].scenario.engineTau "0.5 s"
param *.node[*].scenario.leaderHeadway 1.2s
param *.node[*].scenario.leaderOscillationFrequency "0.2 Hz"
param *.node[*].scenario.leaderSpeed 150kmph
param *.node[*].scenario.oscillationAmplitude "10 kmph"
param *.node[*].scenario.ploegH 0.5s
param *.node[*].scenario.ploegKd 0.7
param *.node[*].scenario.ploegKp 0.2
param *.node[*].scenario.startOscillating "5 s"
param *.node[*].scenario.useRealisticEngine false
param *.node[*].scenario_type "\"SinusoidalScenario\""
param *.node[*].unicast.packetLossRate 0
param *.obstacles.debug false
param *.playgroundSizeX 65000m
param *.playgroundSizeY 25000m
param *.playgroundSizeZ 50m
param *.world.use2D false
param *.world.useTorus false

vector 0  scenario.node[0].appl  distance  ETV
vector 1  scenario.node[0].appl  relativeSpeed  ETV
vector 2  scenario.node[0].appl  nodeId  ETV
vector 6  scenario.node[0].appl  acceleration  ETV
vector 7  scenario.node[0].appl  controllerAcceleration  ETV
vector 3  scenario.node[0].appl  speed  ETV
vector 4  scenario.node[0].appl  posx  ETV
vector 5  scenario.node[0].appl  posy  ETV
vector 22  scenario.node[1].appl  distance  ETV
vector 23  scenario.node[1].appl  relativeSpeed  ETV
vector 24  scenario.node[1].appl  nodeId  ETV
vector 28  scenario.node[1].appl  acceleration  ETV
vector 29  scenario.node[1].appl  controllerAcceleration  ETV
vector 25  scenario.node[1].appl  speed  ETV
vector 26  scenario.node[1].appl  posx  ETV
vector 27  scenario.node[1].appl  posy  ETV
vector 44  scenario.node[2].appl  distance  ETV
vector 45  scenario.node[2].appl  relativeSpeed  ETV
vector 46  scenario.node[2].appl  nodeId  ETV
vector 50  scenario.node[2].appl  acceleration  ETV
vector 51  scenario.node[2].appl  controllerAcceleration  ETV
vector 47  scenario.node[2].appl  speed  ETV
vector 48  scenario.node[2].appl  posx  ETV
vector 49  scenario.node[2].appl  posy  ETV
vector 66  scenario.node[3].appl  distance  ETV
vector 67  scenario.node[3].appl  relativeSpeed  ETV
vector 68  scenario.node[3].appl  nodeId  ETV
vector 72  scenario.node[3].appl  acceleration  ETV
vector 73  scenario.node[3].appl  controllerAcceleration  ETV
vector 69  scenario.node[3].appl  speed  ETV
vector 70  scenario.node[3].appl  posx  ETV
vector 71  scenario.node[3].appl  posy  ETV
vector 88  scenario.node[4].appl  distance  ETV
vector 89  scenario.node[4].appl  relativeSpeed  ETV
vector 90  scenario.node[4].appl  nodeId  ETV
vector 94  scenario.node[4].appl  acceleration  ETV
vector 95  scenario.node[4].appl  controllerAcceleration  ETV
vector 91  scenario.node[4].appl  speed  ETV
vector 92  scenario.node[4].appl  posx  ETV
vector 93  scenario.node[4].appl  posy  ETV
vector 110  scenario.node[5].appl  distance  ETV
vector 111  scenario.node[5].appl  relativeSpeed  ETV
vector 112  scenario.node[5].appl  nodeId  ETV
vector 116  scenario.node[5].appl  acceleration  ETV
vector 117  scenario.node[5].appl  controllerAcceleration  ETV
vector 113  scenario.node[5].appl  speed  ETV
vector 114  scenario.node[5].appl  posx  ETV
vector 115  scenario.node[5].appl  posy  ETV
vector 132  scenario.node[6].appl  distance  ETV
vector 133  scenario.node[6].appl  relativeSpeed  ETV
vector 134  scenario.node[6].appl  nodeId  ETV
vector 138  scenario.node[6].appl  acceleration  ETV
vector 139  scenario.node[6].appl  controllerAcceleration  ETV
vector 135  scenario.node[6].appl  speed  ETV
vector 136  scenario.node[6].appl  posx  ETV
vector 137  scenario.node[6].appl  posy  ETV
vector 154  scenario.node[7].appl  distance  ETV
vector 155  scenario.node[7].appl  relativeSpeed  ETV
vector 156  scenario.node[7].appl  nodeId  ETV
vector 160  scenario.node[7].appl  acceleration  ETV
vector 161  scenario.node[7].appl  controllerAcceleration  ETV
vector 157  scenario.node[7].appl  speed  ETV
vector 158  scenario.node[7].appl  posx  ETV
vector 159  scenario.node[7].appl  posy  ETV
vector 80  scenario.node[3].prot  frontDelay  ETV
vector 78  scenario.node[3].prot  frontDelayId  ETV
vector 58  scenario.node[2].prot  frontDelay  ETV
vector 56  scenario.node[2].prot  frontDelayId  ETV
vector 168  scenario.node[7].prot  frontDelay  ETV
vector 166  scenario.node[7].prot  frontDelayId  ETV
vector 35  scenario.node[1].prot  leaderDelay  ETV
vector 33  scenario.node[1].prot  leaderDelayId  ETV
vector 36  scenario.node[1].prot  frontDelay  ETV
vector 34  scenario.node[1].prot  frontDelayId  ETV
vector 57  scenario.node[2].prot  leaderDelay  ETV
vector 55  scenario.node[2].prot  leaderDelayId  ETV
vector 79  scenario.node[3].prot  leaderDelay  ETV
vector 77  scenario.node[3].prot  leaderDelayId  ETV
vector 101  scenario.node[4].prot  leaderDelay  ETV
vector 99  scenario.node[4].prot  leaderDelayId  ETV
vector 123  scenario.node[5].prot  leaderDelay  ETV
vector 121  scenario.node[5].prot  leaderDelayId  ETV
vector 145  scenario.node[6].prot  leaderDelay  ETV
vector 143  scenario.node[6].prot  leaderDelayId  ETV
vector 167  scenario.node[7].prot  leaderDelay  ETV
vector 165  scenario.node[7].prot  leaderDelayId  ETV
vector 124  scenario.node[5].prot  frontDelay  ETV
vector 122  scenario.node[5].prot  frontDelayId  ETV
vector 102  scenario.node[4].prot  frontDelay  ETV
vector 100  scenario.node[4].prot  frontDelayId  ETV
vector 146  scenario.node[6].prot  frontDelay  ETV
vector 144  scenario.node[6].prot  frontDelayId  ETV
vector 8  scenario.node[0].prot  nodeId  ETV
vector 9  scenario.node[0].prot  busyTime  ETV
vector 10  scenario.node[0].prot  collisions  ETV
vector 30  scenario.node[1].prot  nodeId  ETV
vector 31  scenario.node[1].prot  busyTime  ETV
vector 32  scenario.node[1].prot  collisions  ETV
vector 52  scenario.node[2].prot  nodeId  ETV
vector 53  scenario.node[2].prot  busyTime  ETV
vector 54  scenario.node[2].prot  collisions  ETV
vector 74  scenario.node[3].prot  nodeId  ETV
vector 75  scenario.node[3].prot  busyTime  ETV
vector 76  scenario.node[3].prot  collisions  ETV
vector 96  scenario.node[4].prot  nodeId  ETV
vector 97  scenario.node[4].prot  busyTime  ETV
vector 98  scenario.node[4].prot  collisions  ETV
vector 118  scenario.node[5].prot  nodeId  ETV
vector 119  scenario.node[5].prot  busyTime  ETV
vector 120  scenario.node[5].prot  collisions  ETV
vector 140  scenario.node[6].prot  nodeId  ETV
vector 141  scenario.node[6].prot  busyTime  ETV
vector 142  scenario.node[6].prot  collisions  ETV
vector 162  scenario.node[7].prot  nodeId  ETV
vector 163  scenario.node[7].prot  busyTime  ETV
vector 164  scenario.node[7].prot  collisions  ETV
7	11249 7622 232 177568 1.11 32.91 319 -1.5 1.5 7.7460145522981 502.8098403155
6	18871 10004 232 177568 1.11 32.91 319 -1.4722746794739 1.4513407705138 11.575817869604 336.21656640012
5	28875 6411 232 177568 1.11 32.91 319 36.55 36.55 11659.45 426152.8975
4	35286 9559 232 177568 1.11 32.91 319 100.60653190573 1429.9151543575 244427.53971084 234519003.11004
3	44845 9552 232 177568 1.11 32.91 319 40.376926150007 43.631381416411 13335.16323096 557686.66362967
1	54397 5135 232 177568 1.11 32.91 319 0 0 0 0
0	59532 5454 232 177568 1.11 32.91 319 -1 -1 -319 319
2	64986 5135 232 177568 1.11 32.91 319 0 0 0 0
10	70121 438 5102 172412 2 32 31 0 0 0 0
9	70559 594 5102 172412 2 32 31 0.022969 0.02625 0.810469 0.021199449961
8	71153 407 5102 172412 2 32 31 0 0 0 0
29	71560 10252 233 177569 1.11 32.91 319 -1.5129716526987 1.5129648429844 8.8974417569126 503.57660158493
28	81812 10305 233 177569 1.11 32.91 319 -1.4840815554159 1.4595456978697 12.024680894247 338.13347353536
27	92117 6730 233 177569 1.11 32.91 319 36.55 36.55 11659.45 426152.8975
26	98847 9870 233 177569 1.11 32.91 319 91.606531906128 1420.8431838252 241555.31503728 230144432.61931
25	108717 9883 233 177569 1.11 32.91 319 40.372686851808 43.637493193157 13334.458769959 557629.15087872
23	118600 10799 233 177569 1.11 32.91 319 -0.074693808018758 0.072861107982831 0.58870282168674 0.88789493009891
22	129399 9881 233 177569 1.11 32.91 319 4.9147225588307 5.1113153583133 1596.2105843425 7987.9942843831
24	139280 5454 233 177569 1.11 32.91 319 1 1 319 319
36	144734 12647 1032 177255 1.254911230853 32.854870433149 317 0.099907839697 0.100089841893 31.699971042878 3.1699947334696
35	157381 12647 1032 177255 1.254911230853 32.854870433149 317 0.099907839697 0.100089841893 31.699971042878 3.1699947334696
34	170028 8562 1032 177255 1.254911230853 32.854870433149 317 1 1 317 317
33	178590 8562 1032 177255 1.254911230853 32.854870433149 317 1 1 317 317
32	187152 438 5103 172413 2 32 31 0 0 0 0
31	187590 625 5103 172413 2 32 31 0.022969 0.02625 0.810469 0.021199449961
30	188215 438 5103 172413 2 32 31 1 1 31 31
51	188653 10250 234 177570 1.11 32.91 319 -1.4952754260415 1.4970992039428 9.4859589288078 489.3589999036
50	198903 10309 234 177570 1.11 32.91 319 -1.4761121309526 1.4494360551055 12.170490027626 334.65534630689
49	209212 6730 234 177570 1.11 32.91 319 36.55 36.55 11659.45 426152.8975
48	215942 9899 234 177570 1.11 32.91 319 82.606531906128 1411.8009823271 238683.68949438 225822645.09455
47	225841 9878 234 177570 1.11 32.91 319 40.378496160627 43.632231713036 13334.041183595 557591.62853376
45	235719 10800 234 177570 1.11 32.91 319 -0.042592452935487 0.039108608161158 0.29733955567297 0.21208230272242
44	246519 9883 234 177570 1.11 32.91 319 4.9490553254585 5.0735112746402 1595.6171911662 7981.4796216213
46	256402 5454 234 177570 1.11 32.91 319 2 2 638 1276
58	261856 12686 900 177674 1.229657900624 32.929654990257 318 0.099998839147 0.10001186601 31.799995930215 3.1799991903579
57	274542 12643 1038 177261 1.254911260874 32.854870463312 317 0.099907839705 0.100089841908 31.69997104302 3.169994733498
56	287185 8578 900 177674 1.229657900624 32.929654990257 318 2 2 636 1272
55	295763 8552 1038 177261 1.254911260874 32.854870463312 317 2 2 634 1268
54	304315 438 5104 172414 2 32 31 0 0 0 0
53	304753 625 5104 172414 2 32 31 0.022969 0.02625 0.810469 0.021199449961
52	305378 438 5104 172414 2 32 31 2 2 62 124
73	305816 10243 235 177571 1.11 32.91 319 -1.4890877726435 1.4891492823534 9.7213615052121 475.66000081815
72	316059 10323 235 177571 1.11 32.91 319 -1.4634887767407 1.4362599133236 12.161250534384 328.54632459319
71	326382 6730 235 177571 1.11 32.91 319 36.55 36.55 11659.45 426152.8975
70	333112 9876 235 177571 1.11 32.91 319 73.606531906128 1402.7792217476 235812.07553545 221552657.80554
69	342988 9887 235 177571 1.11 32.91 319 40.391470543542 43.618937130652 13333.822871144 557569.19536889
67	352875 10891 235 177571 1.11 32.91 319 -0.022067715374121 0.020412762615379 0.096607550733786 0.040272249704963
66	363766 9837 235 177571 1.11 32.91 319 4.9704446985783 5.049361123868 1595.6095926866 7981.2082758991
68	373603 5454 235 177571 1.11 32.91 319 3 3 957 2871
80	379057 12697 832 177606 1.213904870603 32.913901960027 318 0.099998839139 0.100011877355 31.799995930006 3.1799991903164
79	391754 12644 1044 177267 1.254911290894 32.854870493405 317 0.099907839706 0.100089841918 31.699971043093 3.1699947335126
78	404398 8583 832 177606 1.213904870603 32.913901960027 318 3 3 954 2862
77	412981 8548 1044 177267 1.254911290894 32.854870493405 317 3 3 951 2853
76	421529 438 5105 172415 2 32 31 0 0 0 0
75	421967 625 5105 172415 2 32 31 0.022968 0.02625 0.810468 0.021199404024
74	422592 438 5105 172415 2 32 31 3 3 93 279
95	423030 10233 236 177572 1.11 32.91 319 -3.4469823092634 1.481758793881 -76.27614758698 557.94005867458
94	433263 10309 236 177572 1.11 32.91 319 -2.7600031139585 1.4261913688827 -64.659997183558 391.84005406747
93	443572 6730 236 177572 1.11 32.91 319 36.55 36.55 11659.45 426152.8975
92	450302 9880 236 177572 1.11 32.91 319 64.606531906128 1383.4124186455 232842.96527056 217068267.48382
91	460182 9876 236 177572 1.11 32.91 319 35.317107047946 43.605775321215 13227.48082674 549139.209728
89	470058 10869 236 177572 1.11 32.91 319 -0.013533735414427 7.5905047289443 106.22043189886 556.91152560595
88	480927 9877 236 177572 1.11 32.91 319 4.9872066814532 15.215075981779 1690.9834239949 9540.7405424608
90	490804 5454 236 177572 1.11 32.91 319 4 4 1276 5104
102	496258 12976 1246 177476 1.303561561081 32.903559807827 317 0.099998839151 0.100011885834 31.699997087328 3.1699994217798
101	509234 12971 1050 177273 1.254911320915 32.854870556495 317 0.099907839704 0.100089841921 31.699971076162 3.1699947401263
100	522205 8877 1246 177476 1.303561561081 32.903559807827 317 4 4 1268 5072
99	531082 8562 1050 177273 1.254911320915 32.854870556495 317 4 4 1268 5072
98	539644 438 5106 172416 2 32 31 0 0 0 0
97	540082 625 5106 172416 2 32 31 0.022969 0.02625 0.810469 0.021199449961
96	540707 438 5106 172416 2 32 31 4 4 124 496
139	541145 10571 238 177574 1.11 32.91 319 -2.6933470757707 1.4812783380017 -21.329644747515 455.18024171305
138	551716 10635 238 177574 1.11 32.91 319 -1.6539581706937 1.4264948361422 -13.660877503152 303.52183375858
137	562351 7049 238 177574 1.11 32.91 319 36.55 36.55 11659.45 426152.8975
136	569400 10198 238 177574 1.11 32.91 319 46.606529998779 1372.872176821 227171.83659732 208982096.24761
135	579598 10201 238 177574 1.11 32.91 319 40.368758927577 43.602655916224 13303.856867112 555077.69063137
133	589799 11121 238 177574 1.11 32.91 319 -1.8665158895587 0.022610049714764 -26.089401535742 34.300165668107
132	600920 10197 238 177574 1.11 32.91 319 2.4625353192362 5.0142921223309 1572.3195529017 7785.3530947358
134	611117 5773 238 177574 1.11 32.91 319 6 6 1914 11484
146	616890 12970 1312 177536 1.305157621123 32.905155843154 317 0.09999883915 0.100011861429 31.699997062613 3.169999416836
145	629860 12967 1062 177285 1.254911380957 32.854870592662 317 0.099907839699 0.100089841913 31.699971052287 3.1699947353514
144	642827 8878 1312 177536 1.305157621123 32.905155843154 317 6 6 1902 11412
143	651705 8878 1062 177285 1.254911380957 32.854870592662 317 6 6 1902 11412
142	660583 469 5108 172418 2 32 31 0 0 0 0
141	661052 656 5108 172418 2 32 31 0.022969 0.02625 0.810469 0.021199449961
140	661708 469 5108 172418 2 32 31 6 6 186 1116
161	662177 10588 239 177575 1.11 32.91 319 -2.3379727167175 1.4938088494784 -8.9294047090492 471.20782459303
160	672765 10641 239 177575 1.11 32.91 319 -1.4564665718794 1.431222805509 -2.3610680270615 308.85615442356
159	683406 7049 239 177575 1.11 32.91 319 36.55 36.55 11659.45 426152.8975
158	690455 10198 239 177575 1.11 32.91 319 37.606529998779 1365.2473803043 224312.46710723 204951184.72383
157	700653 10205 239 177575 1.11 32.91 319 40.390317902196 43.608080120472 13318.002635091 556241.00511557
155	710858 11303 239 177575 1.11 32.91 319 -1.0984793753425 0.011006384318534 -14.009159204598 10.273873810891
154	722161 10190 239 177575 1.11 32.91 319 3.6470968957719 5.0256963155795 1583.6524054471 7871.5786307202
156	732351 5773 239 177575 1.11 32.91 319 7 7 2233 15631
168	738124 12956 975 177198 1.254433050728 32.854431238753 317 0.099998839143 0.100011873652 31.699997028607 3.1699994100353
167	751080 12966 1068 177291 1.254911410977 32.854870618317 317 0.099907839704 0.10008984192 31.699971047922 3.1699947344784
166	764046 8879 975 177198 1.254433050728 32.854431238753 317 7 7 2219 15533
165	772925 8873 1068 177291 1.254911410977 32.854870618317 317 7 7 2219 15533
164	781798 469 5109 172419 2 32 31 0 0 0 0
163	782267 656 5109 172419 2 32 31 0.022969 0.02625 0.810469 0.021199449961
162	782923 469 5109 172419 2 32 31 7 7 217 1519
110	783392 10216 237 177716 1.11 32.95 320 0 5.0346850679173 1548.3366411485 7653.3892659156
111	793608 11118 237 177716 1.11 32.95 320 -3.1660497351464 0.039951789260734 -52.477457580686 124.73797774199
112	804726 5792 237 177716 1.11 32.95 320 5 5 1600 8000
113	810518 10238 237 177716 1.11 32.95 320 38.394410854774 43.597502842109 13315.833245412 554434.46800166
114	820756 10222 237 177716 1.11 32.95 320 55.606529998779 1380.8331761015 231400.46096567 214939781.50163
115	830978 7072 237 177716 1.11 32.95 320 36.55 36.55 11696 427488.8
116	838050 10704 237 177716 1.11 32.95 320 -2.297017297952 1.4230601849562 -35.160119208791 318.75338278654
117	848754 10644 237 177716 1.11 32.95 320 -3.166691753459 1.4914667214568 -47.984353379203 496.3998156906
118	859398 469 5107 172417 2 32 31 5 5 155 775
119	859867 656 5107 172417 2 32 31 0.022968 0.02625 0.810468 0.021199404024
120	860523 469 5107 172417 2 32 31 0 0 0 0
121	860992 8872 1056 177279 1.254911350936 32.854870570855 317 5 5 1585 7925
122	869864 8880 1172 177389 1.26574753106 32.865745694394 317 5 5 1585 7925
123	878744 12959 1056 177279 1.254911350936 32.854870570855 317 0.099907839698 0.100089841915 31.699971060501 3.1699947369942
124	891703 12962 1172 177389 1.26574753106 32.865745694394 317 0.099998839101 0.100011855899 31.699997003916 3.1699994050966
