file 870769 1512141633                                          
version 2
run SinusoidalSpeedInjectionAttack-42-20171201-16:20:17-1426
attr CACCSpacing 5
attr attackAcc -30
attr attackPos 7
attr attackSpeed -50
attr attackStart 30
attr attacker 3
attr beaconInterval 0.1
attr configname SinusoidalSpeedInjectionAttack
attr controller 1
attr datetime 20171201-16:20:17
attr experiment SinusoidalSpeedInjectionAttack
attr fakeAcc "(3 == 4)"
attr fakePos "(3 == 2)"
attr fakeSpeed "(3 == 3)"
attr inifile omnetpp_42.ini
attr iterationvars "$attacker=3, $attackSpeed=-50, $attackPos=7, $attackAcc=-30, $leaderSpeed=150, $controller=1, $CACCSpacing=5, $sController=\"CACC\", $attackStart=30, $0=5, $1=0, $nCars=8, $platoonSize=8, $nLanes=1, $beaconInterval=0.1, $priority=2, $packetSize=200, $ploegH=0.5, $leaderHeadway=1.2, $fakeSpeed=(3 == 3), $fakeAcc=(3 == 4), $fakePos=(3 == 2)"
attr iterationvarsf attacker=3,attackSpeed=-50,attackPos=7,attackAcc=-30,leaderSpeed=150,controller=1,CACCSpacing=5,sController=CACC,attackStart=30,5,0,nCars=8,platoonSize=8,nLanes=1,beaconInterval=0.1,priority=2,packetSize=200,ploegH=0.5,leaderHeadway=1.2,fakeSpeed=(3_==_3),fakeAcc=(3_==_4),fakePos=(3_==_2)-
attr leaderHeadway 1.2
attr leaderSpeed 150
attr measurement "$attacker=3, $attackSpeed=-50, $attackPos=7, $attackAcc=-30, $leaderSpeed=150, $controller=1, $CACCSpacing=5, $sController=\"CACC\", $attackStart=30, $0=5, $1=0, $nCars=8, $platoonSize=8, $nLanes=1, $beaconInterval=0.1, $priority=2, $packetSize=200, $ploegH=0.5, $leaderHeadway=1.2, $fakeSpeed=(3 == 3), $fakeAcc=(3 == 4), $fakePos=(3 == 2)"
attr nCars 8
attr nLanes 1
attr network scenario
attr packetSize 200
attr platoonSize 8
attr ploegH 0.5
attr priority 2
attr processid 1426
attr repetition 2
attr replication #2
attr resultdir results
attr runnumber 42
attr sController "\"CACC\""
attr seedset 2
param **.coreDebug false
param **.debug false
param **.headway 0.1s
param **.numberOfCars 8
param **.numberOfCarsPerPlatoon 8
param **.numberOfLanes 1
param **.numericController 1
param **.traffic.nCars 8
param **.traffic.nLanes 1
param **.traffic.platoonInsertDistance 5m
param **.traffic.platoonInsertHeadway 0s
param **.traffic.platoonInsertSpeed 150kmph
param **.traffic.platoonInsertTime "1 s"
param **.traffic.platoonLeaderHeadway 1.2s
param **.traffic.platoonSize 8
param **.traffic.platooningVType "\"vtypeauto\""
param **.traffic_type "\"PlatoonsTrafficManager\""
param *.**.nic.mac1609_4.bitrate 6Mbps
param *.**.nic.mac1609_4.txPower 100mW
param *.**.nic.mac1609_4.useServiceChannel false
param *.**.nic.phy80211p.analogueModels "xmldoc(\"config.xml\")"
param *.**.nic.phy80211p.decider "xmldoc(\"config.xml\")"
param *.**.nic.phy80211p.maxTXPower 100mW
param *.**.nic.phy80211p.sensitivity -94dBm
param *.**.nic.phy80211p.thermalNoise -95dBm
param *.**.nic.phy80211p.usePropagationDelay true
param *.**.nic.phy80211p.useThermalNoise true
param *.annotations.draw false
param *.connectionManager.alpha 2.0
param *.connectionManager.carrierFrequency "5.890e9 Hz"
param *.connectionManager.pMax 100mW
param *.connectionManager.sat -94dBm
param *.connectionManager.sendDirect true
param *.manager.autoShutdown true
param *.manager.commandLine "\"sumo --remote-port $port --seed $seed --configuration-file $configFile\""
param *.manager.configFile "\"./sumocfg/freeway.sumo.cfg\""
param *.manager.host "\"localhost\""
param *.manager.margin 25
param *.manager.moduleDisplayString "\"\""
param *.manager.moduleName "\"node\""
param *.manager.moduleType "\"Car\""
param *.manager.updateInterval 0.01s
param *.node[*].appl.attackStart 30s
param *.node[*].appl.attackerType 3
param *.node[*].appl.simulationDuration "60 s"
param *.node[*].appl_type "\"SimplePlatooningApp\""
param *.node[*].helper.nCars 8
param *.node[*].helper.nLanes 1
param *.node[*].helper.platoonSize 8
param *.node[*].helper_type "\"PositionHelper\""
param *.node[*].mobility.x 0
param *.node[*].mobility.y 0
param *.node[*].mobility.z 1.895
param *.node[*].prot.attackStart 30s
param *.node[*].prot.attackerType 3
param *.node[*].prot.attackingNode 3
param *.node[*].prot.beaconingInterval 0.1s
param *.node[*].prot.fakeAcc "(3 == 4)"
param *.node[*].prot.fakePos "(3 == 2)"
param *.node[*].prot.fakeSpeed "(3 == 3)"
param *.node[*].prot.maliciousAcc "-30 mpss"
param *.node[*].prot.maliciousSpeed -50kmph
param *.node[*].prot.packetSize 200
param *.node[*].prot.priority 2
param *.node[*].prot.shiftX "7 m"
param *.node[*].prot.useControllerAcceleration true
param *.node[*].protocol_type "\"SimplePlatooningBeaconing\""
param *.node[*].scenario.accHeadway 0.1s
param *.node[*].scenario.caccC1 0.5
param *.node[*].scenario.caccOmegaN "0.2 Hz"
param *.node[*].scenario.caccSpacing 5m
param *.node[*].scenario.caccXi 1
param *.node[*].scenario.controller "\"CACC\""
param *.node[*].scenario.engineTau "0.5 s"
param *.node[*].scenario.leaderHeadway 1.2s
param *.node[*].scenario.leaderSpeed 150kmph
param *.node[*].scenario.ploegH 0.5s
param *.node[*].scenario.ploegKd 0.7
param *.node[*].scenario.ploegKp 0.2
param *.node[*].scenario.useRealisticEngine false
param *.node[*].scenario_type "\"SinusoidalScenario\""
param *.node[*].unicast.packetLossRate 0
param *.obstacles.debug false
param *.playgroundSizeX 65000m
param *.playgroundSizeY 25000m
param *.playgroundSizeZ 50m
param *.world.use2D false
param *.world.useTorus false

vector 0  scenario.node[0].appl  distance  ETV
vector 1  scenario.node[0].appl  relativeSpeed  ETV
vector 2  scenario.node[0].appl  nodeId  ETV
vector 6  scenario.node[0].appl  acceleration  ETV
vector 7  scenario.node[0].appl  controllerAcceleration  ETV
vector 3  scenario.node[0].appl  speed  ETV
vector 4  scenario.node[0].appl  posx  ETV
vector 5  scenario.node[0].appl  posy  ETV
vector 22  scenario.node[1].appl  distance  ETV
vector 23  scenario.node[1].appl  relativeSpeed  ETV
vector 24  scenario.node[1].appl  nodeId  ETV
vector 28  scenario.node[1].appl  acceleration  ETV
vector 29  scenario.node[1].appl  controllerAcceleration  ETV
vector 25  scenario.node[1].appl  speed  ETV
vector 26  scenario.node[1].appl  posx  ETV
vector 27  scenario.node[1].appl  posy  ETV
vector 44  scenario.node[2].appl  distance  ETV
vector 45  scenario.node[2].appl  relativeSpeed  ETV
vector 46  scenario.node[2].appl  nodeId  ETV
vector 50  scenario.node[2].appl  acceleration  ETV
vector 51  scenario.node[2].appl  controllerAcceleration  ETV
vector 47  scenario.node[2].appl  speed  ETV
vector 48  scenario.node[2].appl  posx  ETV
vector 49  scenario.node[2].appl  posy  ETV
vector 66  scenario.node[3].appl  distance  ETV
vector 67  scenario.node[3].appl  relativeSpeed  ETV
vector 68  scenario.node[3].appl  nodeId  ETV
vector 72  scenario.node[3].appl  acceleration  ETV
vector 73  scenario.node[3].appl  controllerAcceleration  ETV
vector 69  scenario.node[3].appl  speed  ETV
vector 70  scenario.node[3].appl  posx  ETV
vector 71  scenario.node[3].appl  posy  ETV
vector 88  scenario.node[4].appl  distance  ETV
vector 89  scenario.node[4].appl  relativeSpeed  ETV
vector 90  scenario.node[4].appl  nodeId  ETV
vector 94  scenario.node[4].appl  acceleration  ETV
vector 95  scenario.node[4].appl  controllerAcceleration  ETV
vector 91  scenario.node[4].appl  speed  ETV
vector 92  scenario.node[4].appl  posx  ETV
vector 93  scenario.node[4].appl  posy  ETV
vector 110  scenario.node[5].appl  distance  ETV
vector 111  scenario.node[5].appl  relativeSpeed  ETV
vector 112  scenario.node[5].appl  nodeId  ETV
vector 116  scenario.node[5].appl  acceleration  ETV
vector 117  scenario.node[5].appl  controllerAcceleration  ETV
vector 113  scenario.node[5].appl  speed  ETV
vector 114  scenario.node[5].appl  posx  ETV
vector 115  scenario.node[5].appl  posy  ETV
vector 132  scenario.node[6].appl  distance  ETV
vector 133  scenario.node[6].appl  relativeSpeed  ETV
vector 134  scenario.node[6].appl  nodeId  ETV
vector 138  scenario.node[6].appl  acceleration  ETV
vector 139  scenario.node[6].appl  controllerAcceleration  ETV
vector 135  scenario.node[6].appl  speed  ETV
vector 136  scenario.node[6].appl  posx  ETV
vector 137  scenario.node[6].appl  posy  ETV
vector 154  scenario.node[7].appl  distance  ETV
vector 155  scenario.node[7].appl  relativeSpeed  ETV
vector 156  scenario.node[7].appl  nodeId  ETV
vector 160  scenario.node[7].appl  acceleration  ETV
vector 161  scenario.node[7].appl  controllerAcceleration  ETV
vector 157  scenario.node[7].appl  speed  ETV
vector 158  scenario.node[7].appl  posx  ETV
vector 159  scenario.node[7].appl  posy  ETV
vector 168  scenario.node[7].prot  frontDelay  ETV
vector 166  scenario.node[7].prot  frontDelayId  ETV
vector 146  scenario.node[6].prot  frontDelay  ETV
vector 144  scenario.node[6].prot  frontDelayId  ETV
vector 35  scenario.node[1].prot  leaderDelay  ETV
vector 33  scenario.node[1].prot  leaderDelayId  ETV
vector 36  scenario.node[1].prot  frontDelay  ETV
vector 34  scenario.node[1].prot  frontDelayId  ETV
vector 57  scenario.node[2].prot  leaderDelay  ETV
vector 55  scenario.node[2].prot  leaderDelayId  ETV
vector 79  scenario.node[3].prot  leaderDelay  ETV
vector 77  scenario.node[3].prot  leaderDelayId  ETV
vector 101  scenario.node[4].prot  leaderDelay  ETV
vector 99  scenario.node[4].prot  leaderDelayId  ETV
vector 123  scenario.node[5].prot  leaderDelay  ETV
vector 121  scenario.node[5].prot  leaderDelayId  ETV
vector 145  scenario.node[6].prot  leaderDelay  ETV
vector 143  scenario.node[6].prot  leaderDelayId  ETV
vector 167  scenario.node[7].prot  leaderDelay  ETV
vector 165  scenario.node[7].prot  leaderDelayId  ETV
vector 102  scenario.node[4].prot  frontDelay  ETV
vector 100  scenario.node[4].prot  frontDelayId  ETV
vector 80  scenario.node[3].prot  frontDelay  ETV
vector 78  scenario.node[3].prot  frontDelayId  ETV
vector 124  scenario.node[5].prot  frontDelay  ETV
vector 122  scenario.node[5].prot  frontDelayId  ETV
vector 58  scenario.node[2].prot  frontDelay  ETV
vector 56  scenario.node[2].prot  frontDelayId  ETV
vector 8  scenario.node[0].prot  nodeId  ETV
vector 9  scenario.node[0].prot  busyTime  ETV
vector 10  scenario.node[0].prot  collisions  ETV
vector 30  scenario.node[1].prot  nodeId  ETV
vector 31  scenario.node[1].prot  busyTime  ETV
vector 32  scenario.node[1].prot  collisions  ETV
vector 52  scenario.node[2].prot  nodeId  ETV
vector 53  scenario.node[2].prot  busyTime  ETV
vector 54  scenario.node[2].prot  collisions  ETV
vector 74  scenario.node[3].prot  nodeId  ETV
vector 75  scenario.node[3].prot  busyTime  ETV
vector 76  scenario.node[3].prot  collisions  ETV
vector 96  scenario.node[4].prot  nodeId  ETV
vector 97  scenario.node[4].prot  busyTime  ETV
vector 98  scenario.node[4].prot  collisions  ETV
vector 118  scenario.node[5].prot  nodeId  ETV
vector 119  scenario.node[5].prot  busyTime  ETV
vector 120  scenario.node[5].prot  collisions  ETV
vector 140  scenario.node[6].prot  nodeId  ETV
vector 141  scenario.node[6].prot  busyTime  ETV
vector 142  scenario.node[6].prot  collisions  ETV
vector 162  scenario.node[7].prot  nodeId  ETV
vector 163  scenario.node[7].prot  busyTime  ETV
vector 164  scenario.node[7].prot  collisions  ETV
7	11083 7296 232 170876 1.11 31.71 307 -1.5 1.5 12.322356189537 486.51089747463
6	18379 9622 232 170876 1.11 31.71 307 -1.4722746794739 1.4513241957715 4.2998653199007 325.22513602573
5	28001 6159 232 170876 1.11 31.71 307 36.55 36.55 11220.85 410122.0675
4	34160 9195 232 170876 1.11 31.71 307 102.0599697109 1380.1363917648 227997.57463301 211444737.19513
3	43355 9182 232 170876 1.11 31.71 307 40.376926150007 43.631381416411 12822.570764877 535789.96503184
1	52537 4931 232 170876 1.11 31.71 307 0 0 0 0
0	57468 5238 232 170876 1.11 31.71 307 -1 -1 -307 307
2	62706 4931 232 170876 1.11 31.71 307 0 0 0 0
10	67637 423 5168 166900 2 31 30 0 0 0 0
9	68060 574 5168 166900 2 31 30 0.023297 0.02625 0.784547 0.020525562709
8	68634 393 5168 166900 2 31 30 0 0 0 0
29	69027 9859 233 170877 1.11 31.71 307 -1.5233934309834 1.5241491857569 10.799579437339 492.08393921535
28	78886 9906 233 170877 1.11 31.71 307 -1.4872877339691 1.4631892485703 3.3460384418795 327.46590010989
27	88792 6466 233 170877 1.11 31.71 307 36.55 36.55 11220.85 410122.0675
26	95258 9492 233 170877 1.11 31.71 307 93.059965896607 1371.105485015 225232.5591038 207365036.44177
25	104750 9512 233 170877 1.11 31.71 307 40.369384337985 43.636794094665 12822.227655922 535764.09983048
23	114262 10380 233 170877 1.11 31.71 307 -0.085370867627489 0.085492727013758 0.30011030158331 1.1822461773877
22	124642 9505 233 170877 1.11 31.71 307 4.9094714737253 5.1291568444871 1537.0086670324 7696.1823811823
24	134147 5238 233 170877 1.11 31.71 307 1 1 307 307
36	139385 12191 1034 171122 1.262216930646 31.762211868783 306 0.099998659109 0.100011674199 30.599993598595 3.0599987244267
35	151576 12191 1034 171122 1.262216930646 31.762211868783 306 0.099998659109 0.100011674199 30.599993598595 3.0599987244267
34	163767 8241 1034 171122 1.262216930646 31.762211868783 306 1 1 306 306
33	172008 8241 1034 171122 1.262216930646 31.762211868783 306 1 1 306 306
32	180249 423 5169 166901 2 31 30 0 0 0 0
31	180672 604 5169 166901 2 31 30 0.023296 0.02625 0.784546 0.020525516116
30	181276 423 5169 166901 2 31 30 1 1 30 30
51	181699 9830 234 170878 1.11 31.71 307 -1.4963007059154 1.4967154537035 9.9558260353072 471.82652695971
50	191529 9896 234 170878 1.11 31.71 307 -1.4778825524118 1.4525906629153 3.0365958868927 323.92183242295
49	201425 6466 234 170878 1.11 31.71 307 36.55 36.55 11220.85 410122.0675
48	207891 9505 234 170878 1.11 31.71 307 84.059965896606 1362.1048601828 222468.44415963 203335098.82001
47	217396 9499 234 170878 1.11 31.71 307 40.375617874812 43.631086110555 12822.211317341 535760.5013716
45	226895 10469 234 170878 1.11 31.71 307 -0.019406090074334 0.017598480801212 -0.017121803192531 0.032760001268757
44	237364 9498 234 170878 1.11 31.71 307 4.9758459001321 5.0458891911319 1536.114617401 7686.2461350848
46	246862 5238 234 170878 1.11 31.71 307 2 2 614 1228
58	252100 12167 1312 170838 1.302609200833 31.702605468981 305 0.099998659095 0.100011706679 30.500007928606 3.0500015905622
57	264267 12192 1040 171128 1.262216960667 31.762211898811 306 0.099998659109 0.100011674205 30.599993598602 3.0599987244281
56	276459 8232 1312 170838 1.302609200833 31.702605468981 305 2 2 610 1220
55	284691 8250 1040 171128 1.262216960667 31.762211898811 306 2 2 612 1224
54	292941 423 5170 166902 2 31 30 0 0 0 0
53	293364 604 5170 166902 2 31 30 0.023297 0.02625 0.784547 0.020525562709
52	293968 423 5170 166902 2 31 30 2 2 60 120
73	294391 9862 235 170879 1.11 31.71 307 -1.5144504221291 1.515444161316 10.350320200679 482.36425023426
72	304253 9921 235 170879 1.11 31.71 307 -1.4663369074121 1.4406082194796 2.8470118883284 318.01826451217
71	314174 6466 235 170879 1.11 31.71 307 36.55 36.55 11220.85 410122.0675
70	320640 9500 235 170879 1.11 31.71 307 75.059965896606 1353.109666918 219704.26149851 199354887.73025
69	330140 9511 235 170879 1.11 31.71 307 40.387229104666 43.618611456843 12822.252313714 535760.29804767
67	339651 10530 235 170879 1.11 31.71 307 -0.015760221720797 0.014948745126567 -0.071362331944393 0.018276400267559
66	350181 9480 235 170879 1.11 31.71 307 4.9816113329605 5.040652675124 1536.183481047 7686.9035982606
68	359661 5238 235 170879 1.11 31.71 307 3 3 921 2763
80	364899 12158 1176 170701 1.287873050729 31.68788225089 305 0.099998659102 0.100011707844 30.500007860619 3.050001576965
79	377057 12207 1046 171134 1.262216990687 31.762211928819 306 0.099998659106 0.100011674207 30.59999359859 3.0599987244257
78	389264 8227 1176 170701 1.287873050729 31.68788225089 305 3 3 915 2745
77	397491 8252 1046 171134 1.262216990687 31.762211928819 306 3 3 918 2754
76	405743 423 5171 166903 2 31 30 0 0 0 0
75	406166 604 5171 166903 2 31 30 0.023297 0.02625 0.784547 0.020525562709
74	406770 423 5171 166903 2 31 30 3 3 90 270
95	407193 9889 236 170880 1.11 31.71 307 -15.154162255781 1.503235701476 -223.53163132989 3059.0952914526
94	417082 9834 236 170880 1.11 31.71 307 -9.0000000000003 1.4309616969605 -146.81542728593 1440.7765093261
93	426916 6466 236 170880 1.11 31.71 307 36.55 36.55 11220.85 410122.0675
92	433382 9495 236 170880 1.11 31.71 307 66.059965896606 1333.5543690726 216883.08387143 195272999.59546
91	442877 9501 236 170880 1.11 31.71 307 27.393224446652 43.605851026972 12711.542733461 527705.03612542
89	452378 10452 236 170880 1.11 31.71 307 -0.013273963562213 14.479654736458 110.68111013414 1090.6870938271
88	462830 9480 236 170880 1.11 31.71 307 4.9908448381341 15.265421998356 1590.9634354747 8591.3975665032
90	472310 5238 236 170880 1.11 31.71 307 4 4 1228 4912
102	477548 12437 1108 170645 1.276579020708 31.676588254191 305 0.099998659103 0.100011711715 30.500007893941 3.0500015836294
101	489985 12468 1052 171140 1.262217020708 31.762211996539 306 0.099998659103 0.100011676345 30.599993636289 3.0599987319655
100	502453 8508 1108 170645 1.276579020708 31.676588254191 305 4 4 1220 4880
99	510961 8225 1052 171140 1.262217020708 31.762211996539 306 4 4 1224 4896
98	519186 423 5172 166904 2 31 30 0 0 0 0
97	519609 604 5172 166904 2 31 30 0.023297 0.02625 0.784547 0.020525562709
96	520213 423 5172 166904 2 31 30 4 4 120 480
139	520636 10178 238 170882 1.11 31.71 307 -2.7169497525085 1.4958357627283 -55.435451526695 542.47592499598
138	530814 10240 238 170882 1.11 31.71 307 -2.4842667500295 1.4357065190943 -43.383601849732 362.59309709793
137	541054 6773 238 170882 1.11 31.71 307 36.55 36.55 11220.85 410122.0675
136	547827 9810 238 170882 1.11 31.71 307 48.059967803955 1323.2694419723 211397.59585406 187673536.55354
135	557637 9812 238 170882 1.11 31.71 307 37.443163520245 43.610545936766 12792.262067328 533367.51791541
133	567449 10890 238 170882 1.11 31.71 307 -4.1071332813045 0.011156223634529 -30.888207023015 86.538148673566
132	578339 9798 238 170882 1.11 31.71 307 2.0559270352776 5.0279109151694 1520.4917788879 7559.2083556161
134	588137 5545 238 170882 1.11 31.71 307 6 6 1842 11052
146	593682 12510 970 171058 1.247594780542 31.747602687477 306 0.099998659092 0.10001172304 30.600006567393 3.060001318322
145	606192 12491 1064 171152 1.26221708075 31.762212029124 306 0.099998659106 0.100011674733 30.599993608832 3.0599987264741
144	618683 8555 970 171058 1.247594780542 31.747602687477 306 6 6 1836 11016
143	627238 8554 1064 171152 1.26221708075 31.762212029124 306 6 6 1836 11016
142	635792 453 5174 166906 2 31 30 0 0 0 0
141	636245 634 5174 166906 2 31 30 0.023297 0.02625 0.784547 0.020525562709
140	636879 453 5174 166906 2 31 30 6 6 180 1080
161	637332 10202 239 170883 1.11 31.71 307 -1.4854568334586 1.4867112329006 -23.622900575315 432.92778722106
160	647534 10251 239 170883 1.11 31.71 307 -1.4553422013989 1.4301187318303 -20.508469112148 300.58364491953
159	657785 6773 239 170883 1.11 31.71 307 36.55 36.55 11220.85 410122.0675
158	664558 9804 239 170883 1.11 31.71 307 39.059966850281 1315.7893927204 208641.30386532 183912243.70131
157	674362 9815 239 170883 1.11 31.71 307 39.64967381221 43.604433767827 12808.248128485 534619.10942209
155	684177 10895 239 170883 1.11 31.71 307 -2.1816676244648 0.0095544623327797 -15.55222513827 23.053359533807
154	695072 9810 239 170883 1.11 31.71 307 3.5241794577337 5.01490877455 1528.6117099654 7618.2004339026
156	704882 5545 239 170883 1.11 31.71 307 7 7 2149 15043
168	710427 12509 832 170920 1.212136690479 31.712131623323 306 0.09999865909 0.100011691418 30.599993593302 3.0599987233686
167	722936 12507 1070 171158 1.26221711077 31.762212053695 306 0.099998659104 0.100011674441 30.599993603383 3.0599987253843
166	735443 8562 832 170920 1.212136690479 31.712131623323 306 7 7 2142 14994
165	744005 8553 1070 171158 1.26221711077 31.762212053695 306 7 7 2142 14994
164	752558 453 5175 166907 2 31 30 0 0 0 0
163	753011 634 5175 166907 2 31 30 0.023297 0.02625 0.784547 0.020525562709
162	753645 453 5175 166907 2 31 30 7 7 210 1470
110	754098 9836 237 171160 1.11 31.77 308 0 5.0245318497509 1510.6106251551 7506.3625108019
111	763934 10681 237 171160 1.11 31.77 308 -6.0642898865813 0.032962812876292 -53.566038103509 230.26432210055
112	774615 5564 237 171160 1.11 31.77 308 5 5 1540 7700
113	780179 9846 237 171160 1.11 31.77 308 32.969727482991 43.607099759179 12793.482363433 532098.84041678
114	790025 9843 237 171160 1.11 31.77 308 57.059967803955 1331.2250495427 215476.67769387 193234156.40571
115	799868 6796 237 171160 1.11 31.77 308 36.55 36.55 11257.4 411457.97
116	806664 10278 237 171160 1.11 31.77 308 -5.4449672525593 1.433084252983 -91.320337280784 680.53991679477
117	816942 10214 237 171160 1.11 31.77 308 -6.9403029034112 1.5107019059802 -120.8741541017 1076.461036414
118	827156 453 5173 166905 2 31 30 5 5 150 750
119	827609 634 5173 166905 2 31 30 0.023297 0.02625 0.784547 0.020525562709
120	828243 453 5173 166905 2 31 30 0 0 0 0
121	828696 8566 1058 171146 1.262217050729 31.762212009914 306 5 5 1530 7650
122	837262 8532 1244 170769 1.297503110771 31.697512329449 305 5 5 1525 7625
123	845794 12517 1058 171146 1.262217050729 31.762212009914 306 0.099998659103 0.10001167533 30.599993619643 3.0599987286363
124	858311 12458 1244 170769 1.297503110771 31.697512329449 305 0.0999986591 0.100011719527 30.500007879136 3.0500015806687
