file 1678939 1512141704                                         
version 2
run SinusoidalSpeedInjectionAttack-69-20171201-16:21:14-20869
attr CACCSpacing 20
attr attackAcc -30
attr attackPos 7
attr attackSpeed 0
attr attackStart 30
attr attacker 3
attr beaconInterval 0.1
attr configname SinusoidalSpeedInjectionAttack
attr controller 1
attr datetime 20171201-16:21:14
attr experiment SinusoidalSpeedInjectionAttack
attr fakeAcc "(3 == 4)"
attr fakePos "(3 == 2)"
attr fakeSpeed "(3 == 3)"
attr inifile omnetpp_69.ini
attr iterationvars "$attacker=3, $attackSpeed=0, $attackPos=7, $attackAcc=-30, $leaderSpeed=50, $controller=1, $CACCSpacing=20, $sController=\"CACC\", $attackStart=30, $0=20, $1=0, $nCars=8, $platoonSize=8, $nLanes=1, $beaconInterval=0.1, $priority=2, $packetSize=200, $ploegH=0.5, $leaderHeadway=1.2, $fakeSpeed=(3 == 3), $fakeAcc=(3 == 4), $fakePos=(3 == 2)"
attr iterationvarsf attacker=3,attackSpeed=0,attackPos=7,attackAcc=-30,leaderSpeed=50,controller=1,CACCSpacing=20,sController=CACC,attackStart=30,20,0,nCars=8,platoonSize=8,nLanes=1,beaconInterval=0.1,priority=2,packetSize=200,ploegH=0.5,leaderHeadway=1.2,fakeSpeed=(3_==_3),fakeAcc=(3_==_4),fakePos=(3_==_2)-
attr leaderHeadway 1.2
attr leaderSpeed 50
attr measurement "$attacker=3, $attackSpeed=0, $attackPos=7, $attackAcc=-30, $leaderSpeed=50, $controller=1, $CACCSpacing=20, $sController=\"CACC\", $attackStart=30, $0=20, $1=0, $nCars=8, $platoonSize=8, $nLanes=1, $beaconInterval=0.1, $priority=2, $packetSize=200, $ploegH=0.5, $leaderHeadway=1.2, $fakeSpeed=(3 == 3), $fakeAcc=(3 == 4), $fakePos=(3 == 2)"
attr nCars 8
attr nLanes 1
attr network scenario
attr packetSize 200
attr platoonSize 8
attr ploegH 0.5
attr priority 2
attr processid 20869
attr repetition 4
attr replication #4
attr resultdir results
attr runnumber 69
attr sController "\"CACC\""
attr seedset 4
param **.coreDebug false
param **.debug false
param **.headway 0.1s
param **.numberOfCars 8
param **.numberOfCarsPerPlatoon 8
param **.numberOfLanes 1
param **.numericController 1
param **.traffic.nCars 8
param **.traffic.nLanes 1
param **.traffic.platoonInsertDistance 20m
param **.traffic.platoonInsertHeadway 0s
param **.traffic.platoonInsertSpeed 50kmph
param **.traffic.platoonInsertTime "1 s"
param **.traffic.platoonLeaderHeadway 1.2s
param **.traffic.platoonSize 8
param **.traffic.platooningVType "\"vtypeauto\""
param **.traffic_type "\"PlatoonsTrafficManager\""
param *.**.nic.mac1609_4.bitrate 6Mbps
param *.**.nic.mac1609_4.txPower 100mW
param *.**.nic.mac1609_4.useServiceChannel false
param *.**.nic.phy80211p.analogueModels "xmldoc(\"config.xml\")"
param *.**.nic.phy80211p.decider "xmldoc(\"config.xml\")"
param *.**.nic.phy80211p.maxTXPower 100mW
param *.**.nic.phy80211p.sensitivity -94dBm
param *.**.nic.phy80211p.thermalNoise -95dBm
param *.**.nic.phy80211p.usePropagationDelay true
param *.**.nic.phy80211p.useThermalNoise true
param *.annotations.draw false
param *.connectionManager.alpha 2.0
param *.connectionManager.carrierFrequency "5.890e9 Hz"
param *.connectionManager.pMax 100mW
param *.connectionManager.sat -94dBm
param *.connectionManager.sendDirect true
param *.manager.autoShutdown true
param *.manager.commandLine "\"sumo --remote-port $port --seed $seed --configuration-file $configFile\""
param *.manager.configFile "\"./sumocfg/freeway.sumo.cfg\""
param *.manager.host "\"localhost\""
param *.manager.margin 25
param *.manager.moduleDisplayString "\"\""
param *.manager.moduleName "\"node\""
param *.manager.moduleType "\"Car\""
param *.manager.updateInterval 0.01s
param *.node[*].appl.attackStart 30s
param *.node[*].appl.attackerType 3
param *.node[*].appl.simulationDuration "60 s"
param *.node[*].appl_type "\"SimplePlatooningApp\""
param *.node[*].helper.nCars 8
param *.node[*].helper.nLanes 1
param *.node[*].helper.platoonSize 8
param *.node[*].helper_type "\"PositionHelper\""
param *.node[*].mobility.x 0
param *.node[*].mobility.y 0
param *.node[*].mobility.z 1.895
param *.node[*].prot.attackStart 30s
param *.node[*].prot.attackerType 3
param *.node[*].prot.attackingNode 3
param *.node[*].prot.beaconingInterval 0.1s
param *.node[*].prot.fakeAcc "(3 == 4)"
param *.node[*].prot.fakePos "(3 == 2)"
param *.node[*].prot.fakeSpeed "(3 == 3)"
param *.node[*].prot.maliciousAcc "-30 mpss"
param *.node[*].prot.maliciousSpeed 0kmph
param *.node[*].prot.packetSize 200
param *.node[*].prot.priority 2
param *.node[*].prot.shiftX "7 m"
param *.node[*].prot.useControllerAcceleration true
param *.node[*].protocol_type "\"SimplePlatooningBeaconing\""
param *.node[*].scenario.accHeadway 0.1s
param *.node[*].scenario.caccC1 0.5
param *.node[*].scenario.caccOmegaN "0.2 Hz"
param *.node[*].scenario.caccSpacing 20m
param *.node[*].scenario.caccXi 1
param *.node[*].scenario.controller "\"CACC\""
param *.node[*].scenario.engineTau "0.5 s"
param *.node[*].scenario.leaderHeadway 1.2s
param *.node[*].scenario.leaderSpeed 50kmph
param *.node[*].scenario.ploegH 0.5s
param *.node[*].scenario.ploegKd 0.7
param *.node[*].scenario.ploegKp 0.2
param *.node[*].scenario.useRealisticEngine false
param *.node[*].scenario_type "\"SinusoidalScenario\""
param *.node[*].unicast.packetLossRate 0
param *.obstacles.debug false
param *.playgroundSizeX 65000m
param *.playgroundSizeY 25000m
param *.playgroundSizeZ 50m
param *.world.use2D false
param *.world.useTorus false

vector 0  scenario.node[0].appl  distance  ETV
vector 1  scenario.node[0].appl  relativeSpeed  ETV
vector 2  scenario.node[0].appl  nodeId  ETV
vector 6  scenario.node[0].appl  acceleration  ETV
vector 7  scenario.node[0].appl  controllerAcceleration  ETV
vector 3  scenario.node[0].appl  speed  ETV
vector 4  scenario.node[0].appl  posx  ETV
vector 5  scenario.node[0].appl  posy  ETV
vector 22  scenario.node[1].appl  distance  ETV
vector 23  scenario.node[1].appl  relativeSpeed  ETV
vector 24  scenario.node[1].appl  nodeId  ETV
vector 28  scenario.node[1].appl  acceleration  ETV
vector 29  scenario.node[1].appl  controllerAcceleration  ETV
vector 25  scenario.node[1].appl  speed  ETV
vector 26  scenario.node[1].appl  posx  ETV
vector 27  scenario.node[1].appl  posy  ETV
vector 44  scenario.node[2].appl  distance  ETV
vector 45  scenario.node[2].appl  relativeSpeed  ETV
vector 46  scenario.node[2].appl  nodeId  ETV
vector 50  scenario.node[2].appl  acceleration  ETV
vector 51  scenario.node[2].appl  controllerAcceleration  ETV
vector 47  scenario.node[2].appl  speed  ETV
vector 48  scenario.node[2].appl  posx  ETV
vector 49  scenario.node[2].appl  posy  ETV
vector 66  scenario.node[3].appl  distance  ETV
vector 67  scenario.node[3].appl  relativeSpeed  ETV
vector 68  scenario.node[3].appl  nodeId  ETV
vector 72  scenario.node[3].appl  acceleration  ETV
vector 73  scenario.node[3].appl  controllerAcceleration  ETV
vector 69  scenario.node[3].appl  speed  ETV
vector 70  scenario.node[3].appl  posx  ETV
vector 71  scenario.node[3].appl  posy  ETV
vector 88  scenario.node[4].appl  distance  ETV
vector 89  scenario.node[4].appl  relativeSpeed  ETV
vector 90  scenario.node[4].appl  nodeId  ETV
vector 94  scenario.node[4].appl  acceleration  ETV
vector 95  scenario.node[4].appl  controllerAcceleration  ETV
vector 91  scenario.node[4].appl  speed  ETV
vector 92  scenario.node[4].appl  posx  ETV
vector 93  scenario.node[4].appl  posy  ETV
vector 110  scenario.node[5].appl  distance  ETV
vector 111  scenario.node[5].appl  relativeSpeed  ETV
vector 112  scenario.node[5].appl  nodeId  ETV
vector 116  scenario.node[5].appl  acceleration  ETV
vector 117  scenario.node[5].appl  controllerAcceleration  ETV
vector 113  scenario.node[5].appl  speed  ETV
vector 114  scenario.node[5].appl  posx  ETV
vector 115  scenario.node[5].appl  posy  ETV
vector 132  scenario.node[6].appl  distance  ETV
vector 133  scenario.node[6].appl  relativeSpeed  ETV
vector 134  scenario.node[6].appl  nodeId  ETV
vector 138  scenario.node[6].appl  acceleration  ETV
vector 139  scenario.node[6].appl  controllerAcceleration  ETV
vector 135  scenario.node[6].appl  speed  ETV
vector 136  scenario.node[6].appl  posx  ETV
vector 137  scenario.node[6].appl  posy  ETV
vector 154  scenario.node[7].appl  distance  ETV
vector 155  scenario.node[7].appl  relativeSpeed  ETV
vector 156  scenario.node[7].appl  nodeId  ETV
vector 160  scenario.node[7].appl  acceleration  ETV
vector 161  scenario.node[7].appl  controllerAcceleration  ETV
vector 157  scenario.node[7].appl  speed  ETV
vector 158  scenario.node[7].appl  posx  ETV
vector 159  scenario.node[7].appl  posy  ETV
vector 102  scenario.node[4].prot  frontDelay  ETV
vector 100  scenario.node[4].prot  frontDelayId  ETV
vector 35  scenario.node[1].prot  leaderDelay  ETV
vector 33  scenario.node[1].prot  leaderDelayId  ETV
vector 36  scenario.node[1].prot  frontDelay  ETV
vector 34  scenario.node[1].prot  frontDelayId  ETV
vector 57  scenario.node[2].prot  leaderDelay  ETV
vector 55  scenario.node[2].prot  leaderDelayId  ETV
vector 79  scenario.node[3].prot  leaderDelay  ETV
vector 77  scenario.node[3].prot  leaderDelayId  ETV
vector 101  scenario.node[4].prot  leaderDelay  ETV
vector 99  scenario.node[4].prot  leaderDelayId  ETV
vector 123  scenario.node[5].prot  leaderDelay  ETV
vector 121  scenario.node[5].prot  leaderDelayId  ETV
vector 145  scenario.node[6].prot  leaderDelay  ETV
vector 143  scenario.node[6].prot  leaderDelayId  ETV
vector 167  scenario.node[7].prot  leaderDelay  ETV
vector 165  scenario.node[7].prot  leaderDelayId  ETV
vector 80  scenario.node[3].prot  frontDelay  ETV
vector 78  scenario.node[3].prot  frontDelayId  ETV
vector 146  scenario.node[6].prot  frontDelay  ETV
vector 144  scenario.node[6].prot  frontDelayId  ETV
vector 58  scenario.node[2].prot  frontDelay  ETV
vector 56  scenario.node[2].prot  frontDelayId  ETV
vector 124  scenario.node[5].prot  frontDelay  ETV
vector 122  scenario.node[5].prot  frontDelayId  ETV
vector 168  scenario.node[7].prot  frontDelay  ETV
vector 166  scenario.node[7].prot  frontDelayId  ETV
vector 8  scenario.node[0].prot  nodeId  ETV
vector 9  scenario.node[0].prot  busyTime  ETV
vector 10  scenario.node[0].prot  collisions  ETV
vector 30  scenario.node[1].prot  nodeId  ETV
vector 31  scenario.node[1].prot  busyTime  ETV
vector 32  scenario.node[1].prot  collisions  ETV
vector 52  scenario.node[2].prot  nodeId  ETV
vector 53  scenario.node[2].prot  busyTime  ETV
vector 54  scenario.node[2].prot  collisions  ETV
vector 74  scenario.node[3].prot  nodeId  ETV
vector 75  scenario.node[3].prot  busyTime  ETV
vector 76  scenario.node[3].prot  collisions  ETV
vector 96  scenario.node[4].prot  nodeId  ETV
vector 97  scenario.node[4].prot  busyTime  ETV
vector 98  scenario.node[4].prot  collisions  ETV
vector 118  scenario.node[5].prot  nodeId  ETV
vector 119  scenario.node[5].prot  busyTime  ETV
vector 120  scenario.node[5].prot  collisions  ETV
vector 140  scenario.node[6].prot  nodeId  ETV
vector 141  scenario.node[6].prot  busyTime  ETV
vector 142  scenario.node[6].prot  collisions  ETV
vector 162  scenario.node[7].prot  nodeId  ETV
vector 163  scenario.node[7].prot  busyTime  ETV
vector 164  scenario.node[7].prot  collisions  ETV
7	11078 13860 232 328174 1.11 59.91 589 -1.5 1.5 -14.445969899918 993.24092361736
6	24938 18587 232 328174 1.11 59.91 589 -1.472274679513 1.4513434175798 -12.507264912644 675.29835211523
5	43525 12081 232 328174 1.11 59.91 589 36.55 36.55 21527.95 786846.5725
4	55606 17905 232 328174 1.11 59.91 589 215.66408119188 1036.6468796898 369625.34695954 265005705.66783
3	73511 17901 232 328174 1.11 59.91 589 12.599076970844 15.853603639796 8223.2832500118 115251.79065057
1	91412 9725 232 328174 1.11 59.91 589 0 0 0 0
0	101137 10314 232 328174 1.11 59.91 589 -1 -1 -589 589
2	111451 9725 232 328174 1.11 59.91 589 0 0 0 0
10	121176 859 5234 328728 2 60 59 0 0 0 0
9	122035 1155 5234 328728 2 60 59 0.023625 0.02625 1.546125 0.040523765625
8	123190 800 5234 328728 2 60 59 0 0 0 0
29	123990 17862 233 328175 1.11 59.91 589 -1.5022740555057 1.5017240992908 -14.809043994996 987.50351688457
28	141852 19174 233 328175 1.11 59.91 589 -1.4793271049111 1.4491063994006 -12.221341166247 673.78414335254
27	161026 12670 233 328175 1.11 59.91 589 36.55 36.55 21527.95 786846.5725
26	173696 18503 233 328175 1.11 59.91 589 191.66408119202 1012.6525125318 355471.75283183 247576942.26216
25	192199 18506 233 328175 1.11 59.91 589 12.598824561334 15.855157541096 8223.3506409948 115252.80812285
23	210705 20118 233 328175 1.11 59.91 589 -0.062041790475234 0.063261405576529 0.057681666055968 1.2031950520635
22	230823 18502 233 328175 1.11 59.91 589 19.934067099263 20.123785057243 11797.595475524 236305.71869564
24	249325 10314 233 328175 1.11 59.91 589 1 1 589 589
36	259639 23683 964 328350 1.241824401662 59.941822370522 588 0.099987257218 0.100012797603 58.799997730079 5.8799995490633
35	283322 23683 964 328350 1.241824401662 59.941822370522 588 0.099987257218 0.100012797603 58.799997730079 5.8799995490633
34	307005 16101 964 328350 1.241824401662 59.941822370522 588 1 1 588 588
33	323106 16101 964 328350 1.241824401662 59.941822370522 588 1 1 588 588
32	339207 859 5235 328729 2 60 59 0 0 0 0
31	340066 1214 5235 328729 2 60 59 0.023625 0.02625 1.546125 0.040523765625
30	341280 859 5235 328729 2 60 59 1 1 59 59
51	342139 18173 234 328176 1.11 59.91 589 -1.5157394580029 1.5126010673939 -15.948767841822 995.29303512332
50	360312 19182 234 328176 1.11 59.91 589 -1.4731702643866 1.4434762622948 -12.051138645968 669.67352635052
49	379494 12670 234 328176 1.11 59.91 589 36.55 36.55 21527.95 786846.5725
48	392164 18512 234 328176 1.11 59.91 589 167.66408119202 988.65280008298 341330.75753491 230846236.22142
47	410676 18489 234 328176 1.11 59.91 589 12.600650976202 15.848466989387 8223.3601540719 115250.19850315
45	429165 20324 234 328176 1.11 59.91 589 -0.01772942574723 0.015851881017262 0.11270033461748 0.060652351411045
44	449489 18482 234 328176 1.11 59.91 589 19.97282310467 20.044744098236 11784.995487189 235800.05739665
46	467971 10314 234 328176 1.11 59.91 589 2 2 1178 2356
58	478285 23698 1176 328562 1.281934122161 59.981932796356 588 0.099987321795 0.100012768284 58.799998435414 5.8799996901248
57	501983 23694 970 328356 1.241824481718 59.941822450575 588 0.099987257211 0.100012797604 58.799997730076 5.8799995490627
56	525677 16127 1176 328562 1.281934122161 59.981932796356 588 2 2 1176 2352
55	541804 16107 970 328356 1.241824481718 59.941822450575 588 2 2 1176 2352
54	557911 859 5236 328730 2 60 59 0 0 0 0
53	558770 1214 5236 328730 2 60 59 0.023625 0.02625 1.546125 0.040523765625
52	559984 859 5236 328730 2 60 59 2 2 118 236
73	560843 19095 235 328177 1.11 59.91 589 -1.4979584843299 1.4963276239402 -15.539918581075 974.15226001878
72	579938 19193 235 328177 1.11 59.91 589 -1.463276487034 1.4357843210334 -11.868129650843 660.49499357954
71	599131 12670 235 328177 1.11 59.91 589 36.55 36.55 21527.95 786846.5725
70	611801 18493 235 328177 1.11 59.91 589 143.66408882141 964.67369382646 327198.08270044 214806337.25729
69	630294 18486 235 328177 1.11 59.91 589 12.609547301505 15.840328354588 8223.5752789616 115250.41338678
67	648780 20499 235 328177 1.11 59.91 589 -0.015485116012533 0.011538813806665 -0.094613503288794 0.026680488052703
66	669279 18494 235 328177 1.11 59.91 589 19.970461291019 20.035617410594 11776.679136959 235467.30102265
68	687773 10314 235 328177 1.11 59.91 589 3 3 1767 5301
80	698087 23705 1040 328420 1.262751561773 59.962749530558 588 0.099987416177 0.100012763184 58.799997730004 5.8799995490341
79	721792 23692 976 328362 1.241824561773 59.941822530559 588 0.099987257205 0.100012797607 58.799997730005 5.8799995490485
78	745484 16110 1040 328420 1.262751561773 59.962749530558 588 3 3 1764 5292
77	761594 16117 976 328362 1.241824561773 59.941822530559 588 3 3 1764 5292
76	777711 859 5237 328731 2 60 59 0 0 0 0
75	778570 1214 5237 328731 2 60 59 0.023625 0.02625 1.546125 0.040523765625
74	779784 859 5237 328731 2 60 59 3 3 177 531
95	780643 17858 236 328178 1.11 59.91 589 -3.0205495702562 1.5 -13.966242081164 976.63258653382
94	798501 19208 236 328178 1.11 59.91 589 -2.5077085954615 1.4869515098527 -12.158816186228 711.95926755567
93	817709 12670 236 328178 1.11 59.91 589 36.55 36.55 21527.95 786846.5725
92	830379 18496 236 328178 1.11 59.91 589 119.66408882141 833.19689091592 290878.65236889 166524081.66902
91	848875 18501 236 328178 1.11 59.91 589 4.1665759329509 15.838329897997 7148.7959115033 91810.462055089
89	867376 19481 236 328178 1.11 59.91 589 -0.026047778042393 8.5133549703761 1074.8980487549 6535.7856595172
88	886857 18476 236 328178 1.11 59.91 589 19.95767015474 127.47607721842 33941.93474421 3155473.567304
90	905333 10314 236 328178 1.11 59.91 589 4 4 2356 9424
102	915647 24298 904 328302 1.240527161496 59.940538488981 588 0.099987440642 0.100012763147 58.800011088704 5.880002220632
101	939945 24293 982 328368 1.241824641829 59.941822969121 588 0.099987259301 0.100012799751 58.799998088511 5.8799996207497
100	964238 16707 904 328302 1.240527161496 59.940538488981 588 4 4 2352 9408
99	980945 16109 982 328368 1.241824641829 59.941822969121 588 4 4 2352 9408
98	997054 859 5238 328732 2 60 59 0 0 0 0
97	997913 1214 5238 328732 2 60 59 0.023625 0.02625 1.546125 0.040523765625
96	999127 859 5238 328732 2 60 59 4 4 236 944
117	999986 19742 237 328179 1.11 59.91 589 -2.8746845609732 1.7600017419485 -17.97915578733 977.33225084859
116	1019728 19823 237 328179 1.11 59.91 589 -2.4351364389362 1.6759193608554 -15.290657570483 684.2271924048
115	1039551 13259 237 328179 1.11 59.91 589 36.55 36.55 21527.95 786846.5725
114	1052810 19086 237 328179 1.11 59.91 589 95.664088821411 810.94026590516 279319.59412089 156086746.54499
113	1071896 19074 237 328179 1.11 59.91 589 6.2832533263772 15.832166385572 7166.1197112258 91137.177952795
111	1090970 20249 237 328179 1.11 59.91 589 -2.9143158474917 1.1503003150058 -17.202211560682 448.08821541079
110	1111219 19073 237 328179 1.11 59.91 589 4.2476637552925 20.024425919434 9203.4047239853 162219.43983735
112	1130292 10903 237 328179 1.11 59.91 589 5 5 2945 14725
124	1141195 24297 1242 328622 1.287391362327 59.987403389217 588 0.099987444758 0.100012762958 58.800011788109 5.8800023605136
123	1165492 24293 988 328374 1.241824721884 59.941823043393 588 0.099987259353 0.100012798842 58.799998082728 5.8799996195931
122	1189785 16700 1242 328622 1.287391362327 59.987403389217 588 5 5 2940 14700
121	1206485 16706 988 328374 1.241824721884 59.941823043393 588 5 5 2940 14700
120	1223191 918 5239 328733 2 60 59 0 0 0 0
119	1224109 1273 5239 328733 2 60 59 0.023625 0.02625 1.546125 0.040523765625
118	1225382 918 5239 328733 2 60 59 5 5 295 1475
139	1226300 19698 238 328180 1.11 59.91 589 -2.540133894638 1.7895489419753 -22.323454439066 972.92095051423
138	1245998 19816 238 328180 1.11 59.91 589 -2.2846278689697 1.7090233968357 -19.473618407388 677.6075955674
137	1265814 13259 238 328180 1.11 59.91 589 36.55 36.55 21527.95 786846.5725
136	1279073 19073 238 328180 1.11 59.91 589 71.664088821411 789.96586587316 267667.79609104 146102671.65173
135	1298146 19084 238 328180 1.11 59.91 589 6.7482806830916 15.824081593573 7196.2295536081 91216.453219607
133	1317230 20310 238 328180 1.11 59.91 589 -1.9989480931891 0.85928498889875 -29.956935806565 279.06420310968
132	1337540 19069 238 328180 1.11 59.91 589 6.2272420915767 20.013796550511 9296.4002267053 162159.07306736
134	1356609 10903 238 328180 1.11 59.91 589 6 6 3534 21204
146	1367512 24297 1106 328486 1.266713801939 59.966712113447 588 0.099987244018 0.100012801621 58.799998072727 5.8799996175941
145	1391809 24296 994 328380 1.241824801939 59.941823113398 588 0.099987259172 0.100012798298 58.799998072678 5.8799996175831
144	1416105 16708 1106 328486 1.266713801939 59.966712113447 588 6 6 3528 21168
143	1432813 16714 994 328380 1.241824801939 59.941823113398 588 6 6 3528 21168
142	1449527 918 5240 328734 2 60 59 0 0 0 0
141	1450445 1273 5240 328734 2 60 59 0.023625 0.02625 1.546125 0.040523765625
140	1451718 918 5240 328734 2 60 59 6 6 354 2124
161	1452636 19697 239 328181 1.11 59.91 589 -2.2387230123853 1.7863611191693 -27.31950990045 992.38118842647
160	1472333 19812 239 328181 1.11 59.91 589 -2.1149142723099 1.7136005174764 -24.543533049915 678.47096048061
159	1492145 13259 239 328181 1.11 59.91 589 36.55 36.55 21527.95 786846.5725
158	1505404 19077 239 328181 1.11 59.91 589 47.664088821411 770.37417145526 255872.55304695 136502680.02333
157	1524481 19076 239 328181 1.11 59.91 589 7.5728881120893 15.828641343931 7240.134926676 91858.780974791
155	1543557 20307 239 328181 1.11 59.91 589 -1.4588893472915 0.67183992743143 -43.710636883901 184.96717708961
154	1563864 19060 239 328181 1.11 59.91 589 7.5513247048584 20.020493115623 9440.1211515448 164645.7832445
156	1582924 10903 239 328181 1.11 59.91 589 7 7 4123 28861
168	1593827 24299 1308 328688 1.289468522438 59.989467524746 588 0.099987331057 0.100012765682 58.799998763527 5.8799997557467
167	1618126 24286 1000 328386 1.241824881995 59.9418231788 588 0.099987258872 0.100012797994 58.799998058024 5.8799996146523
166	1642412 16715 1308 328688 1.289468522438 59.989467524746 588 7 7 4116 28812
165	1659127 16703 1000 328386 1.241824881995 59.9418231788 588 7 7 4116 28812
164	1675830 918 5241 328735 2 60 59 0 0 0 0
163	1676748 1273 5241 328735 2 60 59 0.023625 0.02625 1.546125 0.040523765625
162	1678021 918 5241 328735 2 60 59 7 7 413 2891
