version 2
run SinusoidalSpeedInjectionAttack-44-20170802-18:59:57-18832
attr CACCSpacing 5
attr attackAcc -30
attr attackPos 7
attr attackSpeed -50
attr attackStart 30
attr attacker 3
attr beaconInterval 0.1
attr configname SinusoidalSpeedInjectionAttack
attr controller 1
attr datetime 20170802-18:59:57
attr experiment SinusoidalSpeedInjectionAttack
attr fakeAcc "(3 == 4)"
attr fakePos "(3 == 2)"
attr fakeSpeed "(3 == 3)"
attr inifile omnetpp_44.ini
attr iterationvars "$attacker=3, $attackSpeed=-50, $attackPos=7, $attackAcc=-30, $leaderSpeed=150, $controller=1, $CACCSpacing=5, $sController=\"CACC\", $attackStart=30, $0=5, $1=0, $nCars=8, $platoonSize=8, $nLanes=1, $beaconInterval=0.1, $priority=2, $packetSize=200, $ploegH=0.5, $leaderHeadway=1.2, $fakeSpeed=(3 == 3), $fakeAcc=(3 == 4), $fakePos=(3 == 2)"
attr iterationvarsf attacker=3,attackSpeed=-50,attackPos=7,attackAcc=-30,leaderSpeed=150,controller=1,CACCSpacing=5,sController=CACC,attackStart=30,5,0,nCars=8,platoonSize=8,nLanes=1,beaconInterval=0.1,priority=2,packetSize=200,ploegH=0.5,leaderHeadway=1.2,fakeSpeed=(3_==_3),fakeAcc=(3_==_4),fakePos=(3_==_2)-
attr leaderHeadway 1.2
attr leaderSpeed 150
attr measurement "$attacker=3, $attackSpeed=-50, $attackPos=7, $attackAcc=-30, $leaderSpeed=150, $controller=1, $CACCSpacing=5, $sController=\"CACC\", $attackStart=30, $0=5, $1=0, $nCars=8, $platoonSize=8, $nLanes=1, $beaconInterval=0.1, $priority=2, $packetSize=200, $ploegH=0.5, $leaderHeadway=1.2, $fakeSpeed=(3 == 3), $fakeAcc=(3 == 4), $fakePos=(3 == 2)"
attr nCars 8
attr nLanes 1
attr network scenario
attr packetSize 200
attr platoonSize 8
attr ploegH 0.5
attr priority 2
attr processid 18832
attr repetition 4
attr replication #4
attr resultdir results
attr runnumber 44
attr sController "\"CACC\""
attr seedset 4
param **.coreDebug false
param **.debug false
param **.headway 0.1s
param **.numberOfCars 8
param **.numberOfCarsPerPlatoon 8
param **.numberOfLanes 1
param **.numericController 1
param **.traffic.nCars 8
param **.traffic.nLanes 1
param **.traffic.platoonInsertDistance 5m
param **.traffic.platoonInsertHeadway 0s
param **.traffic.platoonInsertSpeed 150kmph
param **.traffic.platoonInsertTime "1 s"
param **.traffic.platoonLeaderHeadway 1.2s
param **.traffic.platoonSize 8
param **.traffic.platooningVType "\"vtypeauto\""
param **.traffic_type "\"PlatoonsTrafficManager\""
param *.**.nic.mac1609_4.bitrate 6Mbps
param *.**.nic.mac1609_4.txPower 100mW
param *.**.nic.mac1609_4.useServiceChannel false
param *.**.nic.phy80211p.analogueModels "xmldoc(\"config.xml\")"
param *.**.nic.phy80211p.decider "xmldoc(\"config.xml\")"
param *.**.nic.phy80211p.maxTXPower 100mW
param *.**.nic.phy80211p.sensitivity -94dBm
param *.**.nic.phy80211p.thermalNoise -95dBm
param *.**.nic.phy80211p.usePropagationDelay true
param *.**.nic.phy80211p.useThermalNoise true
param *.annotations.draw false
param *.connectionManager.alpha 2.0
param *.connectionManager.carrierFrequency "5.890e9 Hz"
param *.connectionManager.pMax 100mW
param *.connectionManager.sat -94dBm
param *.connectionManager.sendDirect true
param *.manager.autoShutdown true
param *.manager.commandLine "\"sumo --remote-port $port --seed $seed --configuration-file $configFile\""
param *.manager.configFile "\"./sumocfg/freeway.sumo.cfg\""
param *.manager.host "\"localhost\""
param *.manager.margin 25
param *.manager.moduleDisplayString "\"\""
param *.manager.moduleName "\"node\""
param *.manager.moduleType "\"Car\""
param *.manager.updateInterval 0.01s
param *.node[*].appl.attackStart 30s
param *.node[*].appl.attackerType 3
param *.node[*].appl.simulationDuration "60 s"
param *.node[*].appl_type "\"SimplePlatooningApp\""
param *.node[*].helper.nCars 8
param *.node[*].helper.nLanes 1
param *.node[*].helper.platoonSize 8
param *.node[*].helper_type "\"PositionHelper\""
param *.node[*].mobility.x 0
param *.node[*].mobility.y 0
param *.node[*].mobility.z 1.895
param *.node[*].prot.attackStart 30s
param *.node[*].prot.attackerType 3
param *.node[*].prot.attackingNode 3
param *.node[*].prot.beaconingInterval 0.1s
param *.node[*].prot.fakeAcc "(3 == 4)"
param *.node[*].prot.fakePos "(3 == 2)"
param *.node[*].prot.fakeSpeed "(3 == 3)"
param *.node[*].prot.maliciousAcc "-30 mpss"
param *.node[*].prot.maliciousSpeed -50kmph
param *.node[*].prot.packetSize 200
param *.node[*].prot.priority 2
param *.node[*].prot.shiftX "7 m"
param *.node[*].prot.useControllerAcceleration true
param *.node[*].protocol_type "\"SimplePlatooningBeaconing\""
param *.node[*].scenario.accHeadway 0.1s
param *.node[*].scenario.caccC1 0.5
param *.node[*].scenario.caccOmegaN "0.2 Hz"
param *.node[*].scenario.caccSpacing 5m
param *.node[*].scenario.caccXi 1
param *.node[*].scenario.controller "\"CACC\""
param *.node[*].scenario.engineTau "0.5 s"
param *.node[*].scenario.leaderHeadway 1.2s
param *.node[*].scenario.leaderOscillationFrequency "0.2 Hz"
param *.node[*].scenario.leaderSpeed 150kmph
param *.node[*].scenario.oscillationAmplitude "10 kmph"
param *.node[*].scenario.ploegH 0.5s
param *.node[*].scenario.ploegKd 0.7
param *.node[*].scenario.ploegKp 0.2
param *.node[*].scenario.startOscillating "5 s"
param *.node[*].scenario.useRealisticEngine false
param *.node[*].scenario_type "\"SinusoidalScenario\""
param *.node[*].unicast.packetLossRate 0
param *.obstacles.debug false
param *.playgroundSizeX 65000m
param *.playgroundSizeY 25000m
param *.playgroundSizeZ 50m
param *.world.use2D false
param *.world.useTorus false

vector 0  scenario.node[0].appl  distance  ETV
vector 1  scenario.node[0].appl  relativeSpeed  ETV
vector 2  scenario.node[0].appl  nodeId  ETV
vector 6  scenario.node[0].appl  acceleration  ETV
vector 7  scenario.node[0].appl  controllerAcceleration  ETV
vector 3  scenario.node[0].appl  speed  ETV
vector 4  scenario.node[0].appl  posx  ETV
vector 5  scenario.node[0].appl  posy  ETV
vector 22  scenario.node[1].appl  distance  ETV
vector 23  scenario.node[1].appl  relativeSpeed  ETV
vector 24  scenario.node[1].appl  nodeId  ETV
vector 28  scenario.node[1].appl  acceleration  ETV
vector 29  scenario.node[1].appl  controllerAcceleration  ETV
vector 25  scenario.node[1].appl  speed  ETV
vector 26  scenario.node[1].appl  posx  ETV
vector 27  scenario.node[1].appl  posy  ETV
vector 44  scenario.node[2].appl  distance  ETV
vector 45  scenario.node[2].appl  relativeSpeed  ETV
vector 46  scenario.node[2].appl  nodeId  ETV
vector 50  scenario.node[2].appl  acceleration  ETV
vector 51  scenario.node[2].appl  controllerAcceleration  ETV
vector 47  scenario.node[2].appl  speed  ETV
vector 48  scenario.node[2].appl  posx  ETV
vector 49  scenario.node[2].appl  posy  ETV
vector 66  scenario.node[3].appl  distance  ETV
vector 67  scenario.node[3].appl  relativeSpeed  ETV
vector 68  scenario.node[3].appl  nodeId  ETV
vector 72  scenario.node[3].appl  acceleration  ETV
vector 73  scenario.node[3].appl  controllerAcceleration  ETV
vector 69  scenario.node[3].appl  speed  ETV
vector 70  scenario.node[3].appl  posx  ETV
vector 71  scenario.node[3].appl  posy  ETV
vector 88  scenario.node[4].appl  distance  ETV
vector 89  scenario.node[4].appl  relativeSpeed  ETV
vector 90  scenario.node[4].appl  nodeId  ETV
vector 94  scenario.node[4].appl  acceleration  ETV
vector 95  scenario.node[4].appl  controllerAcceleration  ETV
vector 91  scenario.node[4].appl  speed  ETV
vector 92  scenario.node[4].appl  posx  ETV
vector 93  scenario.node[4].appl  posy  ETV
vector 110  scenario.node[5].appl  distance  ETV
vector 111  scenario.node[5].appl  relativeSpeed  ETV
vector 112  scenario.node[5].appl  nodeId  ETV
vector 116  scenario.node[5].appl  acceleration  ETV
vector 117  scenario.node[5].appl  controllerAcceleration  ETV
vector 113  scenario.node[5].appl  speed  ETV
vector 114  scenario.node[5].appl  posx  ETV
vector 115  scenario.node[5].appl  posy  ETV
vector 132  scenario.node[6].appl  distance  ETV
vector 133  scenario.node[6].appl  relativeSpeed  ETV
vector 134  scenario.node[6].appl  nodeId  ETV
vector 138  scenario.node[6].appl  acceleration  ETV
vector 139  scenario.node[6].appl  controllerAcceleration  ETV
vector 135  scenario.node[6].appl  speed  ETV
vector 136  scenario.node[6].appl  posx  ETV
vector 137  scenario.node[6].appl  posy  ETV
vector 154  scenario.node[7].appl  distance  ETV
vector 155  scenario.node[7].appl  relativeSpeed  ETV
vector 156  scenario.node[7].appl  nodeId  ETV
vector 160  scenario.node[7].appl  acceleration  ETV
vector 161  scenario.node[7].appl  controllerAcceleration  ETV
vector 157  scenario.node[7].appl  speed  ETV
vector 158  scenario.node[7].appl  posx  ETV
vector 159  scenario.node[7].appl  posy  ETV
vector 102  scenario.node[4].prot  frontDelay  ETV
vector 100  scenario.node[4].prot  frontDelayId  ETV
vector 35  scenario.node[1].prot  leaderDelay  ETV
vector 33  scenario.node[1].prot  leaderDelayId  ETV
vector 36  scenario.node[1].prot  frontDelay  ETV
vector 34  scenario.node[1].prot  frontDelayId  ETV
vector 57  scenario.node[2].prot  leaderDelay  ETV
vector 55  scenario.node[2].prot  leaderDelayId  ETV
vector 79  scenario.node[3].prot  leaderDelay  ETV
vector 77  scenario.node[3].prot  leaderDelayId  ETV
vector 101  scenario.node[4].prot  leaderDelay  ETV
vector 99  scenario.node[4].prot  leaderDelayId  ETV
vector 123  scenario.node[5].prot  leaderDelay  ETV
vector 121  scenario.node[5].prot  leaderDelayId  ETV
vector 145  scenario.node[6].prot  leaderDelay  ETV
vector 143  scenario.node[6].prot  leaderDelayId  ETV
vector 167  scenario.node[7].prot  leaderDelay  ETV
vector 165  scenario.node[7].prot  leaderDelayId  ETV
vector 80  scenario.node[3].prot  frontDelay  ETV
vector 78  scenario.node[3].prot  frontDelayId  ETV
vector 146  scenario.node[6].prot  frontDelay  ETV
vector 144  scenario.node[6].prot  frontDelayId  ETV
vector 58  scenario.node[2].prot  frontDelay  ETV
vector 56  scenario.node[2].prot  frontDelayId  ETV
vector 124  scenario.node[5].prot  frontDelay  ETV
vector 122  scenario.node[5].prot  frontDelayId  ETV
vector 168  scenario.node[7].prot  frontDelay  ETV
vector 166  scenario.node[7].prot  frontDelayId  ETV
vector 8  scenario.node[0].prot  nodeId  ETV
vector 9  scenario.node[0].prot  busyTime  ETV
vector 10  scenario.node[0].prot  collisions  ETV
vector 30  scenario.node[1].prot  nodeId  ETV
vector 31  scenario.node[1].prot  busyTime  ETV
vector 32  scenario.node[1].prot  collisions  ETV
vector 52  scenario.node[2].prot  nodeId  ETV
vector 53  scenario.node[2].prot  busyTime  ETV
vector 54  scenario.node[2].prot  collisions  ETV
vector 74  scenario.node[3].prot  nodeId  ETV
vector 75  scenario.node[3].prot  busyTime  ETV
vector 76  scenario.node[3].prot  collisions  ETV
vector 96  scenario.node[4].prot  nodeId  ETV
vector 97  scenario.node[4].prot  busyTime  ETV
vector 98  scenario.node[4].prot  collisions  ETV
vector 118  scenario.node[5].prot  nodeId  ETV
vector 119  scenario.node[5].prot  busyTime  ETV
vector 120  scenario.node[5].prot  collisions  ETV
vector 140  scenario.node[6].prot  nodeId  ETV
vector 141  scenario.node[6].prot  busyTime  ETV
vector 142  scenario.node[6].prot  collisions  ETV
vector 162  scenario.node[7].prot  nodeId  ETV
vector 163  scenario.node[7].prot  busyTime  ETV
vector 164  scenario.node[7].prot  collisions  ETV
7	232	1.11	-1.264609664986e-06
7	788	1.21	-1.2370558053476e-06
7	1344	1.31	-1.1922643139428e-06
7	1900	1.41	-1.1341353030048e-06
7	2456	1.51	-1.0661075364737e-06
7	3012	1.61	-9.9117950469463e-07
7	3568	1.71	-9.1193474816009e-07
7	4124	1.81	-8.3057002342457e-07
7	4680	1.91	-7.4892560064654e-07
7	5244	2.01	-6.6851609403784e-07
7	5800	2.11	-5.9056183232542e-07
7	6356	2.21	-5.1602003736662e-07
7	6912	2.31	-4.4561458878434e-07
7	7468	2.41	-3.7986517753552e-07
7	8024	2.51	-3.1911461206846e-07
7	8580	2.61	-2.6355444049386e-07
7	9136	2.71	-2.1324864718508e-07
7	9692	2.81	-1.6815555881067e-07
7	10248	2.91	-1.2814749794643e-07
7	10812	3.01	-9.3028553749264e-08
7	11368	3.11	-6.255026363533e-08
7	11924	3.21	-3.6425589655664e-08
7	12480	3.31	-1.4340962195547e-08
7	13036	3.41	4.0332679418498e-09
7	13592	3.51	1.9034231968362e-08
7	14148	3.61	3.0998883460143e-08
7	14704	3.71	4.0258086642098e-08
7	15260	3.81	4.7131671010447e-08
7	15816	3.91	5.1925063360159e-08
7	16380	4.01	5.4926061920924e-08
7	16936	4.11	5.6402775783226e-08
7	17492	4.21	5.6602530662531e-08
7	18048	4.31	5.5751151251116e-08
7	18604	4.41	5.4052726738973e-08
7	19160	4.51	5.1689909241759e-08
7	19716	4.61	4.8824482234977e-08
7	20272	4.71	4.5598198994412e-08
7	20828	4.81	4.2133798672239e-08
7	21384	4.91	3.8536192903393e-08
7	21949	5.01	3.4893794520485e-08
7	22506	5.11	0.34814790229188
7	23063	5.21	0.68726938086839
7	23620	5.31	1.0064706392337
7	24177	5.41	1.2963311769431
7	24734	5.51	1.5
7	25291	5.61	1.5
7	25848	5.71	1.5
7	26405	5.81	1.5
7	26962	5.91	1.5
7	27527	6.01	1.5
7	28084	6.11	1.5
7	28641	6.21	1.5
7	29198	6.31	1.5
7	29755	6.41	1.5
7	30312	6.51	1.4919234166485
7	30869	6.61	1.2264993309071
7	31426	6.71	0.9230538423432
7	31983	6.81	0.58908102202894
7	32540	6.91	0.23235621850268
7	33105	7.01	-0.13919559587845
7	33662	7.11	-0.51762846369643
7	34219	7.21	-0.89509993758214
7	34776	7.31	-1.2639902868434
7	35333	7.41	-1.5
7	35890	7.51	-1.5
7	36447	7.61	-1.5
7	37004	7.71	-1.5
7	37561	7.81	-1.5
7	38118	7.91	-1.5
7	38683	8.01	-1.5
7	39240	8.11	-1.5
7	39797	8.21	-1.5
7	40354	8.31	-1.5
7	40911	8.41	-1.5
7	41468	8.51	-1.5
7	42025	8.61	-1.5
7	42582	8.71	-1.5
7	43139	8.81	-1.5
7	43696	8.91	-1.5
7	44261	9.01	-1.5
7	44818	9.11	-1.5
7	45375	9.21	-1.5
7	45932	9.31	-1.5
7	46489	9.41	-1.5
7	47046	9.51	-1.1784535903605
7	47603	9.61	-0.73985166412807
7	48160	9.71	-0.29046662052636
7	48717	9.81	0.1586820567595
7	49274	9.91	0.59737147696769
7	49839	10.01	1.0162504342412
7	50396	10.11	1.4069035499393
7	50953	10.21	1.5
7	51510	10.31	1.5
7	52067	10.41	1.5
7	52624	10.51	1.5
7	53181	10.61	1.5
7	53738	10.71	1.5
7	54295	10.81	1.5
7	54852	10.91	1.5
7	55417	11.01	1.5
7	55974	11.11	1.5
7	56531	11.21	1.5
7	57088	11.31	1.5
7	57645	11.41	1.5
7	58202	11.51	1.5
7	58759	11.61	1.5
7	59316	11.71	1.5
7	59873	11.81	1.5
7	60430	11.91	1.1420569523654
7	60995	12.01	0.73271074176932
7	61552	12.11	0.30763491705864
7	62109	12.21	-0.12290183397916
7	62666	12.31	-0.54917422862574
7	63223	12.41	-0.96209331714029
7	63780	12.51	-1.3532900275071
7	64337	12.61	-1.5
7	64894	12.71	-1.5
7	65451	12.81	-1.5
7	66008	12.91	-1.5
7	66573	13.01	-1.5
7	67130	13.11	-1.5
7	67687	13.21	-1.5
7	68244	13.31	-1.5
7	68801	13.41	-1.5
7	69358	13.51	-1.5
7	69915	13.61	-1.5
7	70472	13.71	-1.5
7	71029	13.81	-1.5
7	71586	13.91	-1.5
7	72151	14.01	-1.5
7	72708	14.11	-1.5
7	73265	14.21	-1.5
7	73822	14.31	-1.5
7	74379	14.41	-1.3008305793046
7	74936	14.51	-0.88835736019924
7	75493	14.61	-0.45792464373664
7	76050	14.71	-0.020297800469415
7	76607	14.81	0.41435934758473
7	77164	14.91	0.83657487485725
7	77729	15.01	1.2376491839042
7	78286	15.11	1.5
7	78843	15.21	1.5
7	79400	15.31	1.5
7	79957	15.41	1.5
7	80514	15.51	1.5
7	81071	15.61	1.5
7	81628	15.71	1.5
7	82185	15.81	1.5
7	82742	15.91	1.5
7	83307	16.01	1.5
7	83864	16.11	1.5
7	84421	16.21	1.5
7	84978	16.31	1.5
7	85535	16.41	1.5
7	86092	16.51	1.5
7	86649	16.61	1.5
7	87206	16.71	1.5
7	87763	16.81	1.5
7	88320	16.91	1.2451238477419
7	88885	17.01	0.83347870135727
7	89442	17.11	0.40470958877236
7	89999	17.21	-0.030598062215738
7	90556	17.31	-0.46243980386358
7	91113	17.41	-0.88148335304344
7	91670	17.51	-1.2791500631696
7	92227	17.61	-1.5
7	92784	17.71	-1.5
7	93341	17.81	-1.5
7	93898	17.91	-1.5
7	94463	18.01	-1.5
7	95020	18.11	-1.5
7	95577	18.21	-1.5
7	96134	18.31	-1.5
7	96691	18.41	-1.5
7	97248	18.51	-1.5
7	97805	18.61	-1.5
7	98362	18.71	-1.5
7	98919	18.81	-1.5
7	99476	18.91	-1.5
7	100041	19.01	-1.5
7	100598	19.11	-1.5
7	101155	19.21	-1.5
7	101712	19.31	-1.5
7	102269	19.41	-1.2657245815119
7	102826	19.51	-0.85377693481423
7	103383	19.61	-0.42439560038014
7	103940	19.71	0.011767371268903
7	104497	19.81	0.44464851836469
7	105054	19.91	0.86486384400589
7	105619	20.01	1.2637899041132
7	106176	20.11	1.5
7	106733	20.21	1.5
7	107290	20.31	1.5
7	107847	20.41	1.5
7	108404	20.51	1.5
7	108961	20.61	1.5
7	109518	20.71	1.5
7	110075	20.81	1.5
7	110632	20.91	1.5
7	111197	21.01	1.5
7	111754	21.11	1.5
7	112311	21.21	1.5
7	112868	21.31	1.5
7	113425	21.41	1.5
7	113982	21.51	1.5
7	114539	21.61	1.5
7	115096	21.71	1.5
7	115653	21.81	1.5
7	116210	21.91	1.2580915517757
7	116775	22.01	0.84625491634767
7	117332	22.11	0.41709956367446
7	117889	22.21	-0.01874716354331
7	118446	22.31	-0.45124369149482
7	119003	22.41	-0.87102520538662
7	119560	22.51	-1.2694848794604
7	120117	22.61	-1.5
7	120674	22.71	-1.5
7	121231	22.81	-1.5
7	121788	22.91	-1.5
7	122353	23.01	-1.5
7	122910	23.11	-1.5
7	123467	23.21	-1.5
7	124024	23.31	-1.5
7	124581	23.41	-1.5
7	125138	23.51	-1.5
7	125695	23.61	-1.5
7	126252	23.71	-1.5
7	126809	23.81	-1.5
7	127366	23.91	-1.5
7	127931	24.01	-1.5
7	128488	24.11	-1.5
7	129045	24.21	-1.5
7	129602	24.31	-1.5
7	130159	24.41	-1.2609239651136
7	130716	24.51	-0.84904615684721
7	131273	24.61	-0.41980696481297
7	131830	24.71	0.0161570994443
7	132387	24.81	0.44879633965842
7	132944	24.91	0.86873882266714
7	133509	25.01	1.267371555718
7	134066	25.11	1.5
7	134623	25.21	1.5
7	135180	25.31	1.5
7	135737	25.41	1.5
7	136294	25.51	1.5
7	136851	25.61	1.5
7	137408	25.71	1.5
7	137965	25.81	1.5
7	138522	25.91	1.5
7	139087	26.01	1.5
7	139644	26.11	1.5
7	140201	26.21	1.5
7	140758	26.31	1.5
7	141315	26.41	1.5
7	141872	26.51	1.5
7	142429	26.61	1.5
7	142986	26.71	1.5
7	143543	26.81	1.5
7	144100	26.91	1.259872851865
7	144665	27.01	0.84801032251606
7	145222	27.11	0.41880224309333
7	145779	27.21	-0.017118277439927
7	146336	27.31	-0.449704557082
7	146893	27.41	-0.86958730431672
7	147450	27.51	-1.2681558149805
7	148007	27.61	-1.5
7	148564	27.71	-1.5
7	149121	27.81	-1.5
7	149678	27.91	-1.5
7	150243	28.01	-1.5
7	150800	28.11	-1.5
7	151357	28.21	-1.5
7	151914	28.31	-1.5
7	152471	28.41	-1.5
7	153028	28.51	-1.5
7	153585	28.61	-1.5
7	154142	28.71	-1.5
7	154699	28.81	-1.5
7	155256	28.91	-1.5
7	155821	29.01	-1.5
7	156378	29.11	-1.5
7	156935	29.21	-1.5
7	157492	29.31	-1.5
7	158049	29.41	-1.2602629232498
7	158606	29.51	-0.84839472385467
7	159163	29.61	-0.41917509845132
7	159720	29.71	0.016761581288272
7	160277	29.81	0.44936751475921
7	160834	29.91	0.8692724301223
7	161399	30.01	1.2678647739114
7	161956	30.11	1.5
7	162513	30.21	1.5
7	163070	30.31	1.5
7	163627	30.41	1.5
7	164184	30.51	1.5
7	164741	30.61	1.5
7	165298	30.71	1.5
7	165855	30.81	1.5
7	166412	30.91	1.5
7	166977	31.01	1.5
7	167534	31.11	1.5
7	168091	31.21	1.5
7	168648	31.31	1.5
7	169205	31.41	1.5
7	169762	31.51	1.5
7	170319	31.61	1.5
7	170876	31.71	1.5
7	171433	31.81	1.5
7	171990	31.91	1.2601181665227
7	172555	32.01	0.84825207129943
7	173112	32.11	0.41903673064581
7	173669	32.21	-0.016893952361286
7	174226	32.31	-0.44949259223436
7	174783	32.41	-0.86938928093497
7	175340	32.51	-1.2679727801759
7	175897	32.61	-1.5
7	176454	32.71	-1.5
7	177011	32.81	-1.5
7	177568	32.91	-1.5
7	178133	33.01	-1.5
6	232	1.11	-1.8587371641843e-07
6	788	1.21	-3.7715039979958e-07
6	1344	1.31	-5.2730015909219e-07
6	1900	1.41	-6.4101826069418e-07
6	2456	1.51	-7.2280812446479e-07
6	3012	1.61	-7.7694011224594e-07
6	3568	1.71	-8.0741315855448e-07
6	4124	1.81	-8.1792990158647e-07
6	4680	1.91	-8.1188602507609e-07
6	5244	2.01	-7.9236670558203e-07
6	5800	2.11	-7.6214163868826e-07
6	6356	2.21	-7.2367640768789e-07
6	6912	2.31	-6.7914172063865e-07
6	7468	2.41	-6.3042691067494e-07
6	8024	2.51	-5.791562784907e-07
6	8580	2.61	-5.2670969807878e-07
6	9136	2.71	-4.7423895921384e-07
6	9692	2.81	-4.226883731917e-07
6	10248	2.91	-3.7281679965417e-07
6	10812	3.01	-3.2521825232834e-07
6	11368	3.11	-2.8033753096679e-07
6	11924	3.21	-2.3849224817241e-07
6	12480	3.31	-1.9988561916762e-07
6	13036	3.41	-1.6463133079014e-07
6	13592	3.51	-1.3275709420668e-07
6	14148	3.61	-1.0422880336591e-07
6	14704	3.71	-7.8954798254927e-08
6	15260	3.81	-5.6805049553077e-08
6	15816	3.91	-3.7617553516611e-08
6	16380	4.01	-2.1201884692346e-08
6	16936	4.11	-7.354117315117e-09
6	17492	4.21	4.1374903503311e-09
6	18048	4.31	1.3491074923877e-08
6	18604	4.41	2.0921930854456e-08
6	19160	4.51	2.6641799877325e-08
6	19716	4.61	3.0856028843118e-08
6	20272	4.71	3.3759306461434e-08
6	20828	4.81	3.5534952758098e-08
6	21384	4.91	3.6354919075166e-08
6	21949	5.01	3.6375524814503e-08
6	22506	5.11	0.0068264645847194
6	23063	5.21	0.074594848256737
6	23620	5.31	0.19005135781356
6	24177	5.41	0.34050273679327
6	24734	5.51	0.51301639903159
6	25291	5.61	0.69025459358016
6	25848	5.71	0.8357267325124
6	26405	5.81	0.95506455436478
6	26962	5.91	1.0529631336311
6	27527	6.01	1.1332740666944
6	28084	6.11	1.1991570040927
6	28641	6.21	1.2532039597787
6	29198	6.31	1.2975412879882
6	29755	6.41	1.3339133398063
6	30312	6.51	1.3635927262982
6	30869	6.61	1.370205363024
6	31426	6.71	1.3272611941339
6	31983	6.81	1.237381093641
6	32540	6.91	1.1040433769786
6	33105	7.01	0.9314709214955
6	33662	7.11	0.72451590696545
6	34219	7.21	0.48854318469935
6	34776	7.31	0.22931329740459
6	35333	7.41	-0.044839397355645
6	35890	7.51	-0.30626147357466
6	36447	7.61	-0.52071862935179
6	37004	7.71	-0.69664819248914
6	37561	7.81	-0.84097171050672
6	38118	7.91	-0.95936726314534
6	38683	8.01	-1.0564928534642
6	39240	8.11	-1.1361696663563
6	39797	8.21	-1.2015324043531
6	40354	8.31	-1.255152615343
6	40911	8.41	-1.299139864269
6	41468	8.51	-1.3352247291408
6	42025	8.61	-1.3648268866902
6	42582	8.71	-1.3891109663092
6	43139	8.81	-1.4090323697367
6	43696	8.91	-1.4253748591699
6	44261	9.01	-1.4387813925914
6	44818	9.11	-1.4497794194909
6	45375	9.21	-1.4588016321618
6	45932	9.31	-1.466202988987
6	46489	9.41	-1.4722746794739
6	47046	9.51	-1.469624914661
6	47603	9.61	-1.3967850638842
6	48160	9.71	-1.2587757640922
6	48717	9.81	-1.0660952217464
6	49274	9.91	-0.82923335013376
6	49839	10.01	-0.55852907828324
6	50396	10.11	-0.26404116063858
6	50953	10.21	0.039432698787323
6	51510	10.31	0.30182609759564
6	52067	10.41	0.51708007620732
6	52624	10.51	0.69366331160268
6	53181	10.61	0.83852306854624
6	53738	10.71	0.95735852387477
6	54295	10.81	1.0548449876183
6	54852	10.91	1.1348178424115
6	55417	11.01	1.2004234378772
6	55974	11.11	1.2542428765791
6	56531	11.21	1.2983935616198
6	57088	11.31	1.3346125010308
6	57645	11.41	1.3643246463992
6	58202	11.51	1.3886989543394
6	58759	11.61	1.4086943764177
6	59316	11.71	1.425097586926
6	59873	11.81	1.4385539327783
6	60430	11.91	1.434562737289
6	60995	12.01	1.3623449188863
6	61552	12.11	1.229987565462
6	62109	12.21	1.0461448397947
6	62666	12.31	0.81967864250814
6	63223	12.41	0.55952045906622
6	63780	12.51	0.27454262951352
6	64337	12.61	-0.022341644856283
6	64894	12.71	-0.28780548056062
6	65451	12.81	-0.50557828686024
6	66008	12.91	-0.68422783826705
6	66573	13.01	-0.83078269403671
6	67130	13.11	-0.95100872080636
6	67687	13.21	-1.049635937467
6	68244	13.31	-1.1305446069755
6	68801	13.41	-1.1969178964527
6	69358	13.51	-1.2513671116331
6	69915	13.61	-1.2960344327361
6	70472	13.71	-1.3326771936626
6	71029	13.81	-1.3627370202911
6	71586	13.91	-1.3873965479604
6	72151	14.01	-1.4076259495589
6	72708	14.11	-1.4242211047687
6	73265	14.21	-1.4378349121301
6	73822	14.31	-1.4490029758548
6	74379	14.41	-1.4542593951845
6	74936	14.51	-1.4067454390002
6	75493	14.61	-1.2938574955257
6	76050	14.71	-1.1248409052179
6	76607	14.81	-0.90912582141769
6	77164	14.91	-0.65618298375156
6	77729	15.01	-0.37539052552589
6	78286	15.11	-0.078063005077667
6	78843	15.21	0.20543869668828
6	79400	15.31	0.43800883574505
6	79957	15.41	0.62879735392087
6	80514	15.51	0.78531039044307
6	81071	15.61	0.91370559386164
6	81628	15.71	1.0190343806975
6	82185	15.81	1.1054406719069
6	82742	15.91	1.1763239259999
6	83307	16.01	1.2344728829831
6	83864	16.11	1.2821752809849
6	84421	16.21	1.3213078620858
6	84978	16.31	1.353410208462
6	85535	16.41	1.3797453137336
6	86092	16.51	1.4013492725695
6	86649	16.61	1.4190720434712
6	87206	16.71	1.4336108884486
6	87763	16.81	1.4455378052077
6	88320	16.91	1.4502949065331
6	88885	17.01	1.3935559567543
6	89442	17.11	1.2733368701461
6	89999	17.21	1.0986742440551
6	90556	17.31	0.8787967659174
6	91113	17.41	0.6229832927616
6	91670	17.51	0.34043137853601
6	92227	17.61	0.043031849082098
6	92784	17.71	-0.23417644595227
6	93341	17.81	-0.46158379949475
6	93898	17.91	-0.64813703535265
6	94463	18.01	-0.80117566522517
6	95020	18.11	-0.92672064505592
6	95577	18.21	-1.0297112558185
6	96134	18.31	-1.114199428261
6	96691	18.41	-1.1835091568827
6	97248	18.51	-1.2403672749222
6	97805	18.61	-1.2870107353905
6	98362	18.71	-1.3252746188861
6	98919	18.81	-1.3566643306582
6	99476	18.91	-1.3824148273436
6	100041	19.01	-1.4035392035204
6	100598	19.11	-1.420868549603
6	101155	19.21	-1.4350846492
6	101712	19.31	-1.4467468023348
6	102269	19.41	-1.4517201941764
6	102826	19.51	-1.3984004323881
6	103383	19.61	-1.2808993810083
6	103940	19.71	-1.1083308503771
6	104497	19.81	-0.88999806036725
6	105054	19.91	-0.63525086466711
6	105619	20.01	-0.35335363991251
6	106176	20.11	-0.055983891306255
6	106733	20.21	0.22355126013451
6	107290	20.31	0.45286744637352
6	107847	20.41	0.64098658988883
6	108404	20.51	0.7953098094454
6	108961	20.61	0.92190860023962
6	109518	20.71	1.025763703035
6	110075	20.81	1.110961060045
6	110632	20.91	1.1808525670219
6	111197	21.01	1.2381879459468
6	111754	21.11	1.2852229265718
6	112311	21.21	1.3238079929607
6	112868	21.31	1.3554611865736
6	113425	21.41	1.3814278301389
6	113982	21.51	1.4027295220423
6	114539	21.61	1.4202043287803
6	115096	21.71	1.4345397567773
6	115653	21.81	1.4462998007623
6	116210	21.91	1.4512038299465
6	116775	22.01	1.3966149622043
6	117332	22.11	1.2781048258539
6	117889	22.21	1.104758616826
6	118446	22.31	0.88585193074024
6	119003	22.41	0.63070830476164
6	119560	22.51	0.34856734381066
6	120117	22.61	0.0511856543703
6	120674	22.71	-0.2274874856468
6	121231	22.81	-0.45609652228009
6	121788	22.91	-0.64363555681837
6	122353	23.01	-0.79748288496049
6	122910	23.11	-0.9236912790449
6	123467	23.21	-1.0272261205607
6	124024	23.31	-1.1121607517772
6	124581	23.41	-1.1818367320956
6	125138	23.51	-1.2389953040916
6	125695	23.61	-1.2858852414524
6	126252	23.71	-1.3243513218463
6	126809	23.81	-1.355906905502
6	127366	23.91	-1.3817934749042
6	127931	24.01	-1.403029478103
6	128488	24.11	-1.4204503972238
6	129045	24.21	-1.4347416186069
6	129602	24.31	-1.4464653977718
6	130159	24.41	-1.4513952146871
6	130716	24.51	-1.397277320676
6	131273	24.61	-1.2791416668563
6	131830	24.71	-1.1060840673032
6	132387	24.81	-0.88739036841687
6	132944	24.91	-0.63239387292811
6	133509	25.01	-0.35034337811126
6	134066	25.11	-0.052966136912147
6	134623	25.21	0.22602686982154
6	135180	25.31	0.45489830857193
6	135737	25.41	0.64265260423966
6	136294	25.51	0.7966765214853
6	136851	25.61	0.92302978013734
6	137408	25.71	1.0266834610576
6	137965	25.81	1.1117155819754
6	138522	25.91	1.1814715378058
6	139087	26.01	1.2386957175771
6	139644	26.11	1.2856394761641
6	140201	26.21	1.3241497087101
6	140758	26.31	1.3557415125085
6	141315	26.41	1.3816577950429
6	141872	26.51	1.4029181733591
6	142429	26.61	1.4203590885664
6	142986	26.71	1.4346667137048
6	143543	26.81	1.4464039496623
6	144100	26.91	1.4513241957715
6	144665	27.01	1.3970315218245
6	145222	27.11	1.2787568961947
6	145779	27.21	1.1055921925461
6	146336	27.31	0.8868194531928
6	146893	27.41	0.63176835684402
6	147450	27.51	0.34968428947408
6	148007	27.61	0.052305397196051
6	148564	27.71	-0.22656890652399
6	149121	27.81	-0.45534296745871
6	149678	27.91	-0.64301737940156
6	150243	28.01	-0.79697576417033
6	150800	28.11	-0.92327526336575
6	151357	28.21	-1.0268848428062
6	151914	28.31	-1.1118807851517
6	152471	28.41	-1.1816070619503
6	153028	28.51	-1.2388068945782
6	153585	28.61	-1.2857306800278
6	154142	28.71	-1.3242245276466
6	154699	28.81	-1.3558028900952
6	155256	28.91	-1.3817081460417
6	155821	29.01	-1.4029594787168
6	156378	29.11	-1.4203929733462
6	156935	29.21	-1.4346945110262
6	157492	29.31	-1.446426753148
6	158049	29.41	-1.4513505510308
6	158606	29.51	-1.3971227384744
6	159163	29.61	-1.2788996857282
6	159720	29.71	-1.1057747287524
6	160277	29.81	-0.88703132157306
6	160834	29.91	-0.63200048778214
6	161399	30.01	-0.34992887929945
6	161956	30.11	-0.052550599747292
6	162513	30.21	0.22636775502605
6	163070	30.31	0.45517795316883
6	163627	30.41	0.64288201020943
6	164184	30.51	0.79686471428317
6	164741	30.61	0.92318416377992
6	165298	30.71	1.0268101094155
6	165855	30.81	1.1118194777403
6	166412	30.91	1.181556768519
6	166977	31.01	1.2387656364474
6	167534	31.11	1.2856968339904
6	168091	31.21	1.3241967621056
6	168648	31.31	1.3557801126808
6	169205	31.41	1.3816894606293
6	169762	31.51	1.4029441501705
6	170319	31.61	1.4203803985993
6	170876	31.71	1.434684195354
6	171433	31.81	1.4464182907048
6	171990	31.91	1.4513407705138
6	172555	32.01	1.3970888876891
6	173112	32.11	1.2788466960821
6	173669	32.21	1.1057069889901
6	174226	32.31	0.88695269654835
6	174783	32.41	0.63191434325702
6	175340	32.51	0.3498381112415
6	175897	32.61	0.052459604304289
6	176454	32.71	-0.22644240298533
6	177011	32.81	-0.45523919049515
6	177568	32.91	-0.64293224614715
6	178133	33.01	-0.79690592524955
5	232	1.11	36.55
5	788	1.21	36.55
5	1344	1.31	36.55
5	1900	1.41	36.55
5	2456	1.51	36.55
5	3012	1.61	36.55
5	3568	1.71	36.55
5	4124	1.81	36.55
5	4680	1.91	36.55
5	5244	2.01	36.55
5	5800	2.11	36.55
5	6356	2.21	36.55
5	6912	2.31	36.55
5	7468	2.41	36.55
5	8024	2.51	36.55
5	8580	2.61	36.55
5	9136	2.71	36.55
5	9692	2.81	36.55
5	10248	2.91	36.55
5	10812	3.01	36.55
5	11368	3.11	36.55
5	11924	3.21	36.55
5	12480	3.31	36.55
5	13036	3.41	36.55
5	13592	3.51	36.55
5	14148	3.61	36.55
5	14704	3.71	36.55
5	15260	3.81	36.55
5	15816	3.91	36.55
5	16380	4.01	36.55
5	16936	4.11	36.55
5	17492	4.21	36.55
5	18048	4.31	36.55
5	18604	4.41	36.55
5	19160	4.51	36.55
5	19716	4.61	36.55
5	20272	4.71	36.55
5	20828	4.81	36.55
5	21384	4.91	36.55
5	21949	5.01	36.55
5	22506	5.11	36.55
5	23063	5.21	36.55
5	23620	5.31	36.55
5	24177	5.41	36.55
5	24734	5.51	36.55
5	25291	5.61	36.55
5	25848	5.71	36.55
5	26405	5.81	36.55
5	26962	5.91	36.55
5	27527	6.01	36.55
5	28084	6.11	36.55
5	28641	6.21	36.55
5	29198	6.31	36.55
5	29755	6.41	36.55
5	30312	6.51	36.55
5	30869	6.61	36.55
5	31426	6.71	36.55
5	31983	6.81	36.55
5	32540	6.91	36.55
5	33105	7.01	36.55
5	33662	7.11	36.55
5	34219	7.21	36.55
5	34776	7.31	36.55
5	35333	7.41	36.55
5	35890	7.51	36.55
5	36447	7.61	36.55
5	37004	7.71	36.55
5	37561	7.81	36.55
5	38118	7.91	36.55
5	38683	8.01	36.55
5	39240	8.11	36.55
5	39797	8.21	36.55
5	40354	8.31	36.55
5	40911	8.41	36.55
5	41468	8.51	36.55
5	42025	8.61	36.55
5	42582	8.71	36.55
5	43139	8.81	36.55
5	43696	8.91	36.55
5	44261	9.01	36.55
5	44818	9.11	36.55
5	45375	9.21	36.55
5	45932	9.31	36.55
5	46489	9.41	36.55
5	47046	9.51	36.55
5	47603	9.61	36.55
5	48160	9.71	36.55
5	48717	9.81	36.55
5	49274	9.91	36.55
5	49839	10.01	36.55
5	50396	10.11	36.55
5	50953	10.21	36.55
5	51510	10.31	36.55
5	52067	10.41	36.55
5	52624	10.51	36.55
5	53181	10.61	36.55
5	53738	10.71	36.55
5	54295	10.81	36.55
5	54852	10.91	36.55
5	55417	11.01	36.55
5	55974	11.11	36.55
5	56531	11.21	36.55
5	57088	11.31	36.55
5	57645	11.41	36.55
5	58202	11.51	36.55
5	58759	11.61	36.55
5	59316	11.71	36.55
5	59873	11.81	36.55
5	60430	11.91	36.55
5	60995	12.01	36.55
5	61552	12.11	36.55
5	62109	12.21	36.55
5	62666	12.31	36.55
5	63223	12.41	36.55
5	63780	12.51	36.55
5	64337	12.61	36.55
5	64894	12.71	36.55
5	65451	12.81	36.55
5	66008	12.91	36.55
5	66573	13.01	36.55
5	67130	13.11	36.55
5	67687	13.21	36.55
5	68244	13.31	36.55
5	68801	13.41	36.55
5	69358	13.51	36.55
5	69915	13.61	36.55
5	70472	13.71	36.55
5	71029	13.81	36.55
5	71586	13.91	36.55
5	72151	14.01	36.55
5	72708	14.11	36.55
5	73265	14.21	36.55
5	73822	14.31	36.55
5	74379	14.41	36.55
5	74936	14.51	36.55
5	75493	14.61	36.55
5	76050	14.71	36.55
5	76607	14.81	36.55
5	77164	14.91	36.55
5	77729	15.01	36.55
5	78286	15.11	36.55
5	78843	15.21	36.55
5	79400	15.31	36.55
5	79957	15.41	36.55
5	80514	15.51	36.55
5	81071	15.61	36.55
5	81628	15.71	36.55
5	82185	15.81	36.55
5	82742	15.91	36.55
5	83307	16.01	36.55
5	83864	16.11	36.55
5	84421	16.21	36.55
5	84978	16.31	36.55
5	85535	16.41	36.55
5	86092	16.51	36.55
5	86649	16.61	36.55
5	87206	16.71	36.55
5	87763	16.81	36.55
5	88320	16.91	36.55
5	88885	17.01	36.55
5	89442	17.11	36.55
5	89999	17.21	36.55
5	90556	17.31	36.55
5	91113	17.41	36.55
5	91670	17.51	36.55
5	92227	17.61	36.55
5	92784	17.71	36.55
5	93341	17.81	36.55
5	93898	17.91	36.55
5	94463	18.01	36.55
5	95020	18.11	36.55
5	95577	18.21	36.55
5	96134	18.31	36.55
5	96691	18.41	36.55
5	97248	18.51	36.55
5	97805	18.61	36.55
5	98362	18.71	36.55
5	98919	18.81	36.55
5	99476	18.91	36.55
5	100041	19.01	36.55
5	100598	19.11	36.55
5	101155	19.21	36.55
5	101712	19.31	36.55
5	102269	19.41	36.55
5	102826	19.51	36.55
5	103383	19.61	36.55
5	103940	19.71	36.55
5	104497	19.81	36.55
5	105054	19.91	36.55
5	105619	20.01	36.55
5	106176	20.11	36.55
5	106733	20.21	36.55
5	107290	20.31	36.55
5	107847	20.41	36.55
5	108404	20.51	36.55
5	108961	20.61	36.55
5	109518	20.71	36.55
5	110075	20.81	36.55
5	110632	20.91	36.55
5	111197	21.01	36.55
5	111754	21.11	36.55
5	112311	21.21	36.55
5	112868	21.31	36.55
5	113425	21.41	36.55
5	113982	21.51	36.55
5	114539	21.61	36.55
5	115096	21.71	36.55
5	115653	21.81	36.55
5	116210	21.91	36.55
5	116775	22.01	36.55
5	117332	22.11	36.55
5	117889	22.21	36.55
5	118446	22.31	36.55
5	119003	22.41	36.55
5	119560	22.51	36.55
5	120117	22.61	36.55
5	120674	22.71	36.55
5	121231	22.81	36.55
5	121788	22.91	36.55
5	122353	23.01	36.55
5	122910	23.11	36.55
5	123467	23.21	36.55
5	124024	23.31	36.55
5	124581	23.41	36.55
5	125138	23.51	36.55
5	125695	23.61	36.55
5	126252	23.71	36.55
5	126809	23.81	36.55
5	127366	23.91	36.55
5	127931	24.01	36.55
5	128488	24.11	36.55
5	129045	24.21	36.55
5	129602	24.31	36.55
5	130159	24.41	36.55
5	130716	24.51	36.55
5	131273	24.61	36.55
5	131830	24.71	36.55
5	132387	24.81	36.55
5	132944	24.91	36.55
5	133509	25.01	36.55
5	134066	25.11	36.55
5	134623	25.21	36.55
5	135180	25.31	36.55
5	135737	25.41	36.55
5	136294	25.51	36.55
5	136851	25.61	36.55
5	137408	25.71	36.55
5	137965	25.81	36.55
5	138522	25.91	36.55
5	139087	26.01	36.55
5	139644	26.11	36.55
5	140201	26.21	36.55
5	140758	26.31	36.55
5	141315	26.41	36.55
5	141872	26.51	36.55
5	142429	26.61	36.55
5	142986	26.71	36.55
5	143543	26.81	36.55
5	144100	26.91	36.55
5	144665	27.01	36.55
5	145222	27.11	36.55
5	145779	27.21	36.55
5	146336	27.31	36.55
5	146893	27.41	36.55
5	147450	27.51	36.55
5	148007	27.61	36.55
5	148564	27.71	36.55
5	149121	27.81	36.55
5	149678	27.91	36.55
5	150243	28.01	36.55
5	150800	28.11	36.55
5	151357	28.21	36.55
5	151914	28.31	36.55
5	152471	28.41	36.55
5	153028	28.51	36.55
5	153585	28.61	36.55
5	154142	28.71	36.55
5	154699	28.81	36.55
5	155256	28.91	36.55
5	155821	29.01	36.55
5	156378	29.11	36.55
5	156935	29.21	36.55
5	157492	29.31	36.55
5	158049	29.41	36.55
5	158606	29.51	36.55
5	159163	29.61	36.55
5	159720	29.71	36.55
5	160277	29.81	36.55
5	160834	29.91	36.55
5	161399	30.01	36.55
5	161956	30.11	36.55
5	162513	30.21	36.55
5	163070	30.31	36.55
5	163627	30.41	36.55
5	164184	30.51	36.55
5	164741	30.61	36.55
5	165298	30.71	36.55
5	165855	30.81	36.55
5	166412	30.91	36.55
5	166977	31.01	36.55
5	167534	31.11	36.55
5	168091	31.21	36.55
5	168648	31.31	36.55
5	169205	31.41	36.55
5	169762	31.51	36.55
5	170319	31.61	36.55
5	170876	31.71	36.55
5	171433	31.81	36.55
5	171990	31.91	36.55
5	172555	32.01	36.55
5	173112	32.11	36.55
5	173669	32.21	36.55
5	174226	32.31	36.55
5	174783	32.41	36.55
5	175340	32.51	36.55
5	175897	32.61	36.55
5	176454	32.71	36.55
5	177011	32.81	36.55
5	177568	32.91	36.55
5	178133	33.01	36.55
4	232	1.11	113.44186668356
4	788	1.21	117.60853347474
4	1344	1.31	121.77520026185
4	1900	1.41	125.94186704346
4	2456	1.51	130.10853381849
4	3012	1.61	134.27520058618
4	3568	1.71	138.44186734604
4	4124	1.81	142.60853409781
4	4680	1.91	146.7752008414
4	5244	2.01	150.94186757692
4	5800	2.11	155.10853430457
4	6356	2.21	159.27520102468
4	6912	2.31	163.44186773764
4	7468	2.41	167.60853444391
4	8024	2.51	171.77520114397
4	8580	2.61	175.94186783835
4	9136	2.71	180.10853452757
4	9692	2.81	184.27520121215
4	10248	2.91	188.4418678926
4	10812	3.01	192.60853456941
4	11368	3.11	196.77520124307
4	11924	3.21	200.94186791401
4	12480	3.31	205.10853458263
4	13036	3.41	209.27520124933
4	13592	3.51	213.44186791445
4	14148	3.61	217.6085345783
4	14704	3.71	221.77520124116
4	15260	3.81	225.94186790327
4	15816	3.91	230.10853456485
4	16380	4.01	234.27520122609
4	16936	4.11	238.44186788714
4	17492	4.21	242.60853454815
4	18048	4.31	246.77520120921
4	18604	4.41	250.94186787043
4	19160	4.51	255.10853453186
4	19716	4.61	259.27520119357
4	20272	4.71	263.4418678556
4	20828	4.81	267.60853451796
4	21384	4.91	271.77520118068
4	21949	5.01	275.94186784377
4	22506	5.11	280.1085358725
4	23063	5.21	284.2754304033
4	23620	5.31	288.44332502782
4	24177	5.41	292.6134443737
4	24734	5.51	296.78733842463
4	25291	5.61	300.96674204302
4	25848	5.71	305.15334071332
4	26405	5.81	309.34853647594
4	26962	5.91	313.55347962412
4	27527	6.01	317.76911379898
4	28084	6.11	321.99621311491
4	28641	6.21	326.23541261532
4	29198	6.31	330.48723325699
4	29755	6.41	334.75210240595
4	30312	6.51	339.03037061951
4	30869	6.61	343.32229564757
4	31426	6.71	347.62783105719
4	31983	6.81	351.94645033183
4	32540	6.91	356.27716469516
4	33105	7.01	360.61855943437
4	33662	7.11	364.96883743497
4	34219	7.21	369.325868771
4	34776	7.31	373.6872451831
4	35333	7.41	378.05033873433
4	35890	7.51	382.41243649743
4	36447	7.61	386.77104066604
4	37004	7.71	391.12408409484
4	37561	7.81	395.4698710047
4	38118	7.91	399.80701026608
4	38683	8.01	404.13436066823
4	39240	8.11	408.45098602084
4	39797	8.21	412.7561183218
4	40354	8.31	417.04912754189
4	40911	8.41	421.32949683767
4	41468	8.51	425.59680221755
4	42025	8.61	429.85069586073
4	42582	8.71	434.09089243299
4	43139	8.81	438.31715786093
4	43696	8.91	442.52930012279
4	44261	9.01	446.72716169387
4	44818	9.11	450.91061334906
4	45375	9.21	455.07954907872
4	45932	9.31	459.23388191808
4	46489	9.41	463.37354052568
4	47046	9.51	467.49846863952
4	47603	9.61	471.60886155999
4	48160	9.71	475.70558060839
4	48717	9.81	479.79011754714
4	49274	9.91	483.86448948927
4	49839	10.01	487.93113427429
4	50396	10.11	491.99280761904
4	50953	10.21	496.05248228278
4	51510	10.31	500.11308647943
4	52067	10.41	504.17714151813
4	52624	10.51	508.24672222473
4	53181	10.61	512.32353067912
4	53738	10.71	516.40896317962
4	54295	10.81	520.50416517717
4	54852	10.91	524.61007634053
4	55417	11.01	528.72746752536
4	55974	11.11	532.85697110178
4	56531	11.21	536.99910583355
4	57088	11.31	541.15429728764
4	57645	11.41	545.32289457719
4	58202	11.51	549.50518409658
4	58759	11.61	553.70140078892
4	59316	11.71	557.91173738943
4	59873	11.81	562.1363520081
4	60430	11.91	566.37535955079
4	60995	12.01	570.62855498773
4	61552	12.11	574.89509300294
4	62109	12.21	579.17354449509
4	62666	12.31	583.46198357355
4	63223	12.41	587.75807634959
4	63780	12.51	592.05917015958
4	64337	12.61	596.36238279535
4	64894	12.71	600.66482550776
4	65451	12.81	604.96395252237
4	66008	12.91	609.25766473442
4	66573	13.01	613.54424014691
4	67130	13.11	617.82226612251
4	67687	13.21	622.09058380658
4	68244	13.31	626.3482425347
4	68801	13.41	630.59446243093
4	69358	13.51	634.82860372537
4	69915	13.61	639.05014158385
4	70472	13.71	643.25864545958
4	71029	13.81	647.45376215421
4	71586	13.91	651.63520192208
4	72151	14.01	655.80272707084
4	72708	14.11	659.95614260997
4	73265	14.21	664.09528857932
4	73822	14.31	668.22003375586
4	74379	14.41	672.33027127206
4	74936	14.51	676.42606766575
4	75493	14.61	680.50803824298
4	76050	14.71	684.57742673835
4	76607	14.81	688.63601896922
4	77164	14.91	692.68604841978
4	77729	15.01	696.73010169213
4	78286	15.11	700.77102470463
4	78843	15.21	704.81176033106
4	79400	15.31	708.85501772462
4	79957	15.41	712.90303862106
4	80514	15.51	716.9576620245
4	81071	15.61	721.02039655883
4	81628	15.71	725.09247982109
4	82185	15.81	729.17492707193
4	82742	15.91	733.26857117868
4	83307	16.01	737.37409538263
4	83864	16.11	741.49206017963
4	84421	16.21	745.62292537149
4	84978	16.31	749.76706815584
4	85535	16.41	753.92479796613
4	86092	16.51	758.09636864553
4	86649	16.61	762.28198843389
4	87206	16.71	766.48182816041
4	87763	16.81	770.6960279645
4	88320	16.91	774.92470179487
4	88885	17.01	779.16775314751
4	89442	17.11	783.42448365218
4	89999	17.21	787.69357964762
4	90556	17.31	791.973201837
4	91113	17.41	796.26107770827
4	91670	17.51	800.55459418687
4	92227	17.61	804.85088980538
4	92784	17.71	809.14703891873
4	93341	17.81	813.44038926274
4	93898	17.91	817.72874886558
4	94463	18.01	822.01031954689
4	95020	18.11	826.28362617246
4	95577	18.21	830.54745861845
4	96134	18.31	834.80082416182
4	96691	18.41	839.04290842394
4	97248	18.51	843.27304333065
4	97805	18.61	847.49068082846
4	98362	18.71	851.69537132263
4	98919	18.81	855.88674598887
4	99476	18.91	860.06450226281
4	100041	19.01	864.22839193628
4	100598	19.11	868.37821139211
4	101155	19.21	872.51379359334
4	101712	19.31	876.63500151145
4	102269	19.41	880.74172365407
4	102826	19.51	884.8340451871
4	103383	19.61	888.91263364754
4	103940	19.71	892.97877676955
4	104497	19.81	897.03429401285
4	105054	19.91	901.08144340408
4	105619	20.01	905.12282818249
4	106176	20.11	909.16130402633
4	106733	20.21	913.19980292757
4	107290	20.31	917.24099818233
4	107847	20.41	921.28710016162
4	108404	20.51	925.33992213955
4	108961	20.61	929.40095163243
4	109518	20.71	933.47140892174
4	110075	20.81	937.55229506335
4	110632	20.91	941.64443127169
4	111197	21.01	945.74849122866
4	111754	21.11	949.86502758805
4	112311	21.21	953.99449371844
4	112868	21.31	958.13726154001
4	113425	21.41	962.29363615682
4	113982	21.51	966.46386786047
4	114539	21.61	970.64816197726
4	115096	21.71	974.84668694625
4	115653	21.81	979.05958094616
4	116210	21.91	983.28695638299
4	116775	22.01	987.52872396455
4	117332	22.11	991.78420473109
4	117889	22.21	996.05210132241
4	118446	22.31	1000.3305869114
4	119003	22.41	1004.6173980892
4	119560	22.51	1008.9099279591
4	120117	22.61	1013.2053186868
4	120674	22.71	1017.5006406248
4	121231	22.81	1021.7932282682
4	121788	22.91	1026.080878062
4	122353	23.01	1030.3617823239
4	122910	23.11	1034.6344581247
4	123467	23.21	1038.8976889459
4	124024	23.31	1043.1504768186
4	124581	23.41	1047.3920030607
4	125138	23.51	1051.6215960679
4	125695	23.61	1055.8387048906
4	126252	23.71	1060.0428775582
4	126809	23.81	1064.2337432975
4	127366	23.91	1068.4109979453
4	127931	24.01	1072.5743919819
4	128488	24.11	1076.723720714
4	129045	24.21	1080.8588162221
4	129602	24.31	1084.9795407535
4	130159	24.41	1089.0857822407
4	130716	24.51	1093.1776284443
4	131273	24.61	1097.2557540849
4	131830	24.71	1101.3214529503
4	132387	24.81	1105.3765491335
4	132944	24.91	1109.4233040459
4	133509	25.01	1113.4643232268
4	134066	25.11	1117.5024637101
4	134623	25.21	1121.5406560132
4	135180	25.31	1125.5815685322
4	135737	25.41	1129.6274073511
4	136294	25.51	1133.6799822273
4	136851	25.61	1137.7407777922
4	137408	25.71	1141.8110119605
4	137965	25.81	1145.8916838466
4	138522	25.91	1149.9836130723
4	139087	26.01	1154.0874720128
4	139644	26.11	1158.2038122501
4	140201	26.21	1162.3330862736
4	140758	26.31	1166.475665282
4	141315	26.41	1170.6318537877
4	141872	26.51	1174.8019015969
4	142429	26.61	1178.9860136376
4	142986	26.71	1183.1843580222
4	143543	26.81	1187.3970726615
4	144100	26.91	1191.6242697486
4	144665	27.01	1195.8658609545
4	145222	27.11	1200.1211699855
4	145779	27.21	1204.3889017279
4	146336	27.31	1208.6672310742
4	146893	27.41	1212.9538958717
4	147450	27.51	1217.2462900774
4	148007	27.61	1221.5415563603
4	148564	27.71	1225.8367645258
4	149121	27.81	1230.1292472508
4	149678	27.91	1234.4167993899
4	150243	28.01	1238.6976119555
4	150800	28.11	1242.9702009482
4	151357	28.21	1247.2333489711
4	151914	28.31	1251.4860573352
4	152471	28.41	1255.7275067673
4	153028	28.51	1259.9570251783
4	153585	28.61	1264.1740612208
4	154142	28.71	1268.3781625981
4	154699	28.81	1272.5689582692
4	155256	28.91	1276.7461438515
4	155821	29.01	1280.9094696449
4	156378	29.11	1285.0587308087
4	156935	29.21	1289.1937593019
4	157492	29.31	1293.3144172725
4	158049	29.41	1297.420592574
4	158606	29.51	1301.5123733244
4	159163	29.61	1305.5904352337
4	159720	29.71	1309.6560729235
4	160277	29.81	1313.7111111248
4	160834	29.91	1317.7578117152
4	161399	30.01	1321.7987805508
4	161956	30.11	1325.8368748525
4	162513	30.21	1329.8750249344
4	163070	30.31	1333.915898518
4	163627	30.41	1337.961701097
4	164184	30.51	1342.0142419445
4	164741	30.61	1346.0750052946
4	165298	30.71	1350.1452087363
4	165855	30.81	1354.2258511166
4	166412	30.91	1358.3177518378
4	166977	31.01	1362.4215830955
4	167534	31.11	1366.5378963239
4	168091	31.21	1370.6671438913
4	168648	31.31	1374.8096968972
4	169205	31.41	1378.9658597725
4	169762	31.51	1383.1358822564
4	170319	31.61	1387.3199692223
4	170876	31.71	1391.5182887375
4	171433	31.81	1395.7309786759
4	171990	31.91	1399.9581512012
4	172555	32.01	1404.1997181173
4	173112	32.11	1408.4550034974
4	173669	32.21	1412.7227125373
4	174226	32.31	1417.0010203664
4	174783	32.41	1421.2876650048
4	175340	32.51	1425.5800405273
4	175897	32.61	1429.875289672
4	176454	32.71	1434.1704821691
4	177011	32.81	1438.462950445
4	177568	32.91	1442.7504891353
4	178133	33.01	1447.0312890728
3	232	1.11	41.666667929418
3	788	1.21	41.666667899951
3	1344	1.31	41.666667853658
3	1900	1.41	41.666667794392
3	2456	1.51	41.666667725546
3	3012	1.61	41.666667650077
3	3568	1.71	41.666667570527
3	4124	1.81	41.666667489057
3	4680	1.91	41.666667407473
3	5244	2.01	41.666667327259
3	5800	2.11	41.666667249607
3	6356	2.21	41.66666717545
3	6912	2.31	41.66666710549
3	7468	2.41	41.666667040228
3	8024	2.51	41.66666697999
3	8580	2.61	41.666666924954
3	9136	2.71	41.666666875173
3	9692	2.81	41.666666830595
3	10248	2.91	41.666666791086
3	10812	3.01	41.666666756443
3	11368	3.11	41.666666726414
3	11924	3.21	41.666666700707
3	12480	3.31	41.666666679009
3	13036	3.41	41.666666660987
3	13592	3.51	41.666666646305
3	14148	3.61	41.666666634625
3	14704	3.71	41.666666625619
3	15260	3.81	41.666666618967
3	15816	3.91	41.666666614365
3	16380	4.01	41.666666611529
3	16936	4.11	41.66666661019
3	17492	4.21	41.666666610106
3	18048	4.31	41.66666661105
3	18604	4.41	41.666666612823
3	19160	4.51	41.666666615243
3	19716	4.61	41.666666618151
3	20272	4.71	41.666666621406
3	20828	4.81	41.666666624888
3	21384	4.91	41.666666628494
3	21949	5.01	41.666666632137
3	22506	5.11	41.666734900033
3	23063	5.21	41.670948476405
3	23620	5.31	41.684664742913
3	24177	5.41	41.711945167374
3	24734	5.51	41.755610823567
3	25291	5.61	41.816952665848
3	25848	5.71	41.894216596382
3	26405	5.81	41.984547685456
3	26962	5.91	42.085598395823
3	27527	6.01	42.195442929292
3	28084	6.11	42.312501460593
3	28641	6.21	42.43547798275
3	29198	6.31	42.563309318645
3	29755	6.41	42.695123292736
3	30312	6.51	42.830202833657
3	30869	6.61	42.967277868462
3	31426	6.71	43.102240784882
3	31983	6.81	43.23027401884
3	32540	6.91	43.346870620625
3	33105	7.01	43.447913783684
3	33662	7.11	43.529744939715
3	34219	7.21	43.589220237998
3	34776	7.31	43.623755328609
3	35333	7.41	43.631381416411
3	35890	7.51	43.612092454521
3	36447	7.61	43.56932103241
3	37004	7.71	43.507285813978
3	37561	7.81	43.429447572987
3	38118	7.91	43.338645349306
3	38683	8.01	43.237208144466
3	39240	8.11	43.127046550912
3	39797	8.21	43.00972791991
3	40354	8.31	42.886538025405
3	40911	8.41	42.758531649867
3	41468	8.51	42.626574082303
3	42025	8.61	42.491375161077
3	42582	8.71	42.353517200886
3	43139	8.81	42.2134779026
3	43696	8.91	42.071649147316
3	44261	9.01	41.928352414027
3	44818	9.11	41.783851427477
3	45375	9.21	41.638362533812
3	45932	9.31	41.492063212224
3	46489	9.41	41.345099057468
3	47046	9.51	41.197687195957
3	47603	9.61	41.054345829873
3	48160	9.71	40.92197732765
3	48717	9.81	40.806518415565
3	49274	9.91	40.712854985186
3	49839	10.01	40.644830941643
3	50396	10.11	40.605270576133
3	50953	10.21	40.595961789979
3	51510	10.31	40.614765090574
3	52067	10.41	40.657138101268
3	52624	10.51	40.71884648357
3	53181	10.61	40.796416605098
3	53738	10.71	40.886998877433
3	54295	10.81	40.988255645561
3	54852	10.91	41.098269218164
3	55417	11.01	41.215466420431
3	55974	11.11	41.33855670108
3	56531	11.21	41.46648135856
3	57088	11.31	41.598371888854
3	57645	11.41	41.733515816169
3	58202	11.51	41.8713286622
3	58759	11.61	42.01133095116
3	59316	11.71	42.153129345907
3	59873	11.81	42.296401172981
3	60430	11.91	42.440475080365
3	60995	12.01	42.58031618601
3	61552	12.11	42.709536275545
3	62109	12.21	42.822598150946
3	62666	12.31	42.914842923842
3	63223	12.41	42.98250305941
3	63780	12.51	43.022702120469
3	64337	12.61	43.033484343958
3	64894	12.71	43.016216261811
3	65451	12.81	42.975102664961
3	66008	12.91	42.914427440664
3	66573	13.01	42.837704868549
3	67130	13.11	42.747817881934
3	67687	13.21	42.647131490264
3	68244	13.31	42.537585825019
3	68801	13.41	42.420772469757
3	69358	13.51	42.297997077347
3	69915	13.61	42.170330737898
3	70472	13.71	42.038652118361
3	71029	13.81	41.903682031675
3	71586	13.91	41.766011795509
3	72151	14.01	41.626126496309
3	72708	14.11	41.484424073913
3	73265	14.21	41.341230977594
3	73822	14.31	41.196815009456
3	74379	14.41	41.051434913329
3	74936	14.51	40.908219760552
3	75493	14.61	40.773448085166
3	76050	14.71	40.653147856182
3	76607	14.81	40.552410818743
3	77164	14.91	40.47538209096
3	77729	15.01	40.425263577507
3	78286	15.11	40.404308597451
3	78843	15.21	40.412557746568
3	79400	15.31	40.44627267704
3	79957	15.41	40.500878417952
3	80514	15.51	40.572621899691
3	81071	15.61	40.658424297982
3	81628	15.71	40.755759904564
3	82185	15.81	40.862556758959
3	82742	15.91	40.977115131913
3	83307	16.01	41.098040653421
3	83864	16.11	41.224189454421
3	84421	16.21	41.354623163871
3	84978	16.31	41.488571990683
3	85535	16.41	41.625404438048
3	86092	16.51	41.76460245863
3	86649	16.61	41.905741073179
3	87206	16.71	42.04847165069
3	87763	16.81	42.19250819231
3	88320	16.91	42.337565506681
3	88885	17.01	42.4798603368
3	89442	17.11	42.612895096878
3	89999	17.21	42.730819673225
3	90556	17.31	42.828699680314
3	91113	17.41	42.90252772365
3	91670	17.51	42.949221043622
3	92227	17.61	42.966635531731
3	92784	17.71	42.955239679248
3	93341	17.81	42.91894335602
3	93898	17.91	42.862219973949
3	94463	18.01	42.788739288885
3	95020	18.11	42.7015117788
3	95577	18.21	42.603007084181
3	96134	18.31	42.495251170402
3	96691	18.41	42.379906034713
3	97248	18.51	42.258335093733
3	97805	18.61	42.131656823968
3	98362	18.71	42.000788765715
3	98919	18.81	41.866483621601
3	99476	18.91	41.729358869944
3	100041	19.01	41.589921058033
3	100598	19.11	41.448585731074
3	101155	19.21	41.305693780873
3	101712	19.31	41.161524857441
3	102269	19.41	41.016354307546
3	102826	19.51	40.873722785233
3	103383	19.61	40.740048622954
3	103940	19.71	40.621247784992
3	104497	19.81	40.522312925574
3	105054	19.91	40.447302443002
3	105619	20.01	40.399343226154
3	106176	20.11	40.380619836989
3	106733	20.21	40.390852261269
3	107290	20.31	40.42619416815
3	107847	20.41	40.482134596392
3	108404	20.51	40.554972986614
3	108961	20.61	40.641673591217
3	109518	20.71	40.73974603982
3	110075	20.81	40.847147361314
3	110632	20.91	40.962201607825
3	111197	21.01	41.083533918363
3	111754	21.11	41.210016428051
3	112311	21.21	41.340723894856
3	112868	21.31	41.47489729805
3	113425	21.41	41.611913976267
3	113982	21.51	41.751263130315
3	114539	21.61	41.892525726947
3	115096	21.71	42.035358012948
3	115653	21.81	42.179477990955
3	116210	21.91	42.324606891881
3	116775	22.01	42.467114711865
3	117332	22.11	42.600552801533
3	117889	22.21	42.71902961828
3	118446	22.31	42.817574119593
3	119003	22.41	42.892146826113
3	119560	22.51	42.939637219565
3	120117	22.61	42.957875746063
3	120674	22.71	42.947212316072
3	121231	22.81	42.911516834389
3	121788	22.91	42.855286351658
3	122353	23.01	42.78221001573
3	122910	23.11	42.695314212772
3	123467	23.21	42.59708163353
3	124024	23.31	42.489548949138
3	124581	23.41	42.374386939297
3	125138	23.51	42.252966225295
3	125695	23.61	42.126411193975
3	126252	23.71	41.995644234173
3	126809	23.81	41.861422026
3	127366	23.91	41.724365310702
3	127931	24.01	41.584983312302
3	128488	24.11	41.443693771862
3	129045	24.21	41.300839382553
3	129602	24.31	41.156701272136
3	130159	24.41	41.011556940943
3	130716	24.51	40.869003238384
3	131273	24.61	40.735477564529
3	131830	24.71	40.616880524647
3	132387	24.81	40.518191181199
3	132944	24.91	40.443456034258
3	133509	25.01	40.395791677168
3	134066	25.11	40.377373233275
3	134623	25.21	40.387876729909
3	135180	25.31	40.423441010534
3	135737	25.41	40.479563862699
3	136294	25.51	40.552551904076
3	136851	25.61	40.63937527475
3	137408	25.71	40.73754843429
3	137965	25.81	40.845032373831
3	138522	25.91	40.960154395916
3	139087	26.01	41.08154230603
3	139644	26.11	41.208070426737
3	140201	26.21	41.338815310463
3	140758	26.31	41.473019408564
3	141315	26.41	41.610061267297
3	141872	26.51	41.749431078138
3	142429	26.61	41.890710620534
3	142986	26.71	42.033556807965
3	143543	26.81	42.177688189986
3	144100	26.91	42.32282679545
3	144665	27.01	42.465363471292
3	145222	27.11	42.598856642818
3	145779	27.21	42.717409067934
3	146336	27.31	42.816044660405
3	146893	27.41	42.890719525564
3	147450	27.51	42.938319324542
3	148007	27.61	42.956671000835
3	148564	27.71	42.946108152695
3	149121	27.81	42.910495183162
3	149678	27.91	42.854332389134
3	150243	28.01	42.781311581518
3	150800	28.11	42.694461331116
3	151357	28.21	42.596266120836
3	151914	28.31	42.488764092008
3	152471	28.41	42.373627230407
3	153028	28.51	42.252227146722
3	153585	28.61	42.125689039447
3	154142	28.71	41.994935963255
3	154699	28.81	41.86072514448
3	155256	28.91	41.723677772453
3	155821	29.01	41.584303438791
3	156378	29.11	41.443020186105
3	156935	29.21	41.300170954946
3	157492	29.31	41.156037076006
3	158049	29.41	41.010896345715
3	158606	29.51	40.868353351213
3	159163	29.61	40.734848117978
3	159720	29.71	40.616279136189
3	160277	29.81	40.517623596567
3	160834	29.91	40.442926360655
3	161399	30.01	40.395302603962
3	161956	30.11	40.376926150007
3	162513	30.21	40.387466972619
3	163070	30.31	40.423061873548
3	163627	30.41	40.479209845027
3	164184	30.51	40.55221849299
3	164741	30.61	40.639058768242
3	165298	30.71	40.737245795424
3	165855	30.81	40.844741111261
3	166412	30.91	40.959872465872
3	166977	31.01	41.081268031907
3	167534	31.11	41.207802433136
3	168091	31.21	41.338552469078
3	168648	31.31	41.47276079379
3	169205	31.41	41.609806119816
3	169762	31.51	41.749178775045
3	170319	31.61	41.890460650831
3	170876	31.71	42.033308752454
3	171433	31.81	42.177441704779
3	171990	31.91	42.32258164654
3	172555	32.01	42.465122296168
3	173112	32.11	42.598623053264
3	173669	32.21	42.71718589082
3	174226	32.31	42.815834027991
3	174783	32.41	42.890522962046
3	175340	32.51	42.938137827955
3	175897	32.61	42.956505086842
3	176454	32.71	42.945956090486
3	177011	32.81	42.910354484241
3	177568	32.91	42.854201012067
3	178133	33.01	42.781187851618
1	232	1.11	0
1	788	1.21	0
1	1344	1.31	0
1	1900	1.41	0
1	2456	1.51	0
1	3012	1.61	0
1	3568	1.71	0
1	4124	1.81	0
1	4680	1.91	0
1	5244	2.01	0
1	5800	2.11	0
1	6356	2.21	0
1	6912	2.31	0
1	7468	2.41	0
1	8024	2.51	0
1	8580	2.61	0
1	9136	2.71	0
1	9692	2.81	0
1	10248	2.91	0
1	10812	3.01	0
1	11368	3.11	0
1	11924	3.21	0
1	12480	3.31	0
1	13036	3.41	0
1	13592	3.51	0
1	14148	3.61	0
1	14704	3.71	0
1	15260	3.81	0
1	15816	3.91	0
1	16380	4.01	0
1	16936	4.11	0
1	17492	4.21	0
1	18048	4.31	0
1	18604	4.41	0
1	19160	4.51	0
1	19716	4.61	0
1	20272	4.71	0
1	20828	4.81	0
1	21384	4.91	0
1	21949	5.01	0
1	22506	5.11	0
1	23063	5.21	0
1	23620	5.31	0
1	24177	5.41	0
1	24734	5.51	0
1	25291	5.61	0
1	25848	5.71	0
1	26405	5.81	0
1	26962	5.91	0
1	27527	6.01	0
1	28084	6.11	0
1	28641	6.21	0
1	29198	6.31	0
1	29755	6.41	0
1	30312	6.51	0
1	30869	6.61	0
1	31426	6.71	0
1	31983	6.81	0
1	32540	6.91	0
1	33105	7.01	0
1	33662	7.11	0
1	34219	7.21	0
1	34776	7.31	0
1	35333	7.41	0
1	35890	7.51	0
1	36447	7.61	0
1	37004	7.71	0
1	37561	7.81	0
1	38118	7.91	0
1	38683	8.01	0
1	39240	8.11	0
1	39797	8.21	0
1	40354	8.31	0
1	40911	8.41	0
1	41468	8.51	0
1	42025	8.61	0
1	42582	8.71	0
1	43139	8.81	0
1	43696	8.91	0
1	44261	9.01	0
1	44818	9.11	0
1	45375	9.21	0
1	45932	9.31	0
1	46489	9.41	0
1	47046	9.51	0
1	47603	9.61	0
1	48160	9.71	0
1	48717	9.81	0
1	49274	9.91	0
1	49839	10.01	0
1	50396	10.11	0
1	50953	10.21	0
1	51510	10.31	0
1	52067	10.41	0
1	52624	10.51	0
1	53181	10.61	0
1	53738	10.71	0
1	54295	10.81	0
1	54852	10.91	0
1	55417	11.01	0
1	55974	11.11	0
1	56531	11.21	0
1	57088	11.31	0
1	57645	11.41	0
1	58202	11.51	0
1	58759	11.61	0
1	59316	11.71	0
1	59873	11.81	0
1	60430	11.91	0
1	60995	12.01	0
1	61552	12.11	0
1	62109	12.21	0
1	62666	12.31	0
1	63223	12.41	0
1	63780	12.51	0
1	64337	12.61	0
1	64894	12.71	0
1	65451	12.81	0
1	66008	12.91	0
1	66573	13.01	0
1	67130	13.11	0
1	67687	13.21	0
1	68244	13.31	0
1	68801	13.41	0
1	69358	13.51	0
1	69915	13.61	0
1	70472	13.71	0
1	71029	13.81	0
1	71586	13.91	0
1	72151	14.01	0
1	72708	14.11	0
1	73265	14.21	0
1	73822	14.31	0
1	74379	14.41	0
1	74936	14.51	0
1	75493	14.61	0
1	76050	14.71	0
1	76607	14.81	0
1	77164	14.91	0
1	77729	15.01	0
1	78286	15.11	0
1	78843	15.21	0
1	79400	15.31	0
1	79957	15.41	0
1	80514	15.51	0
1	81071	15.61	0
1	81628	15.71	0
1	82185	15.81	0
1	82742	15.91	0
1	83307	16.01	0
1	83864	16.11	0
1	84421	16.21	0
1	84978	16.31	0
1	85535	16.41	0
1	86092	16.51	0
1	86649	16.61	0
1	87206	16.71	0
1	87763	16.81	0
1	88320	16.91	0
1	88885	17.01	0
1	89442	17.11	0
1	89999	17.21	0
1	90556	17.31	0
1	91113	17.41	0
1	91670	17.51	0
1	92227	17.61	0
1	92784	17.71	0
1	93341	17.81	0
1	93898	17.91	0
1	94463	18.01	0
1	95020	18.11	0
1	95577	18.21	0
1	96134	18.31	0
1	96691	18.41	0
1	97248	18.51	0
1	97805	18.61	0
1	98362	18.71	0
1	98919	18.81	0
1	99476	18.91	0
1	100041	19.01	0
1	100598	19.11	0
1	101155	19.21	0
1	101712	19.31	0
1	102269	19.41	0
1	102826	19.51	0
1	103383	19.61	0
1	103940	19.71	0
1	104497	19.81	0
1	105054	19.91	0
1	105619	20.01	0
1	106176	20.11	0
1	106733	20.21	0
1	107290	20.31	0
1	107847	20.41	0
1	108404	20.51	0
1	108961	20.61	0
1	109518	20.71	0
1	110075	20.81	0
1	110632	20.91	0
1	111197	21.01	0
1	111754	21.11	0
1	112311	21.21	0
1	112868	21.31	0
1	113425	21.41	0
1	113982	21.51	0
1	114539	21.61	0
1	115096	21.71	0
1	115653	21.81	0
1	116210	21.91	0
1	116775	22.01	0
1	117332	22.11	0
1	117889	22.21	0
1	118446	22.31	0
1	119003	22.41	0
1	119560	22.51	0
1	120117	22.61	0
1	120674	22.71	0
1	121231	22.81	0
1	121788	22.91	0
1	122353	23.01	0
1	122910	23.11	0
1	123467	23.21	0
1	124024	23.31	0
1	124581	23.41	0
1	125138	23.51	0
1	125695	23.61	0
1	126252	23.71	0
1	126809	23.81	0
1	127366	23.91	0
1	127931	24.01	0
1	128488	24.11	0
1	129045	24.21	0
1	129602	24.31	0
1	130159	24.41	0
1	130716	24.51	0
1	131273	24.61	0
1	131830	24.71	0
1	132387	24.81	0
1	132944	24.91	0
1	133509	25.01	0
1	134066	25.11	0
1	134623	25.21	0
1	135180	25.31	0
1	135737	25.41	0
1	136294	25.51	0
1	136851	25.61	0
1	137408	25.71	0
1	137965	25.81	0
1	138522	25.91	0
1	139087	26.01	0
1	139644	26.11	0
1	140201	26.21	0
1	140758	26.31	0
1	141315	26.41	0
1	141872	26.51	0
1	142429	26.61	0
1	142986	26.71	0
1	143543	26.81	0
1	144100	26.91	0
1	144665	27.01	0
1	145222	27.11	0
1	145779	27.21	0
1	146336	27.31	0
1	146893	27.41	0
1	147450	27.51	0
1	148007	27.61	0
1	148564	27.71	0
1	149121	27.81	0
1	149678	27.91	0
1	150243	28.01	0
1	150800	28.11	0
1	151357	28.21	0
1	151914	28.31	0
1	152471	28.41	0
1	153028	28.51	0
1	153585	28.61	0
1	154142	28.71	0
1	154699	28.81	0
1	155256	28.91	0
1	155821	29.01	0
1	156378	29.11	0
1	156935	29.21	0
1	157492	29.31	0
1	158049	29.41	0
1	158606	29.51	0
1	159163	29.61	0
1	159720	29.71	0
1	160277	29.81	0
1	160834	29.91	0
1	161399	30.01	0
1	161956	30.11	0
1	162513	30.21	0
1	163070	30.31	0
1	163627	30.41	0
1	164184	30.51	0
1	164741	30.61	0
1	165298	30.71	0
1	165855	30.81	0
1	166412	30.91	0
1	166977	31.01	0
1	167534	31.11	0
1	168091	31.21	0
1	168648	31.31	0
1	169205	31.41	0
1	169762	31.51	0
1	170319	31.61	0
1	170876	31.71	0
1	171433	31.81	0
1	171990	31.91	0
1	172555	32.01	0
1	173112	32.11	0
1	173669	32.21	0
1	174226	32.31	0
1	174783	32.41	0
1	175340	32.51	0
1	175897	32.61	0
1	176454	32.71	0
1	177011	32.81	0
1	177568	32.91	0
1	178133	33.01	0
0	232	1.11	-1
0	788	1.21	-1
0	1344	1.31	-1
0	1900	1.41	-1
0	2456	1.51	-1
0	3012	1.61	-1
0	3568	1.71	-1
0	4124	1.81	-1
0	4680	1.91	-1
0	5244	2.01	-1
0	5800	2.11	-1
0	6356	2.21	-1
0	6912	2.31	-1
0	7468	2.41	-1
0	8024	2.51	-1
0	8580	2.61	-1
0	9136	2.71	-1
0	9692	2.81	-1
0	10248	2.91	-1
0	10812	3.01	-1
0	11368	3.11	-1
0	11924	3.21	-1
0	12480	3.31	-1
0	13036	3.41	-1
0	13592	3.51	-1
0	14148	3.61	-1
0	14704	3.71	-1
0	15260	3.81	-1
0	15816	3.91	-1
0	16380	4.01	-1
0	16936	4.11	-1
0	17492	4.21	-1
0	18048	4.31	-1
0	18604	4.41	-1
0	19160	4.51	-1
0	19716	4.61	-1
0	20272	4.71	-1
0	20828	4.81	-1
0	21384	4.91	-1
0	21949	5.01	-1
0	22506	5.11	-1
0	23063	5.21	-1
0	23620	5.31	-1
0	24177	5.41	-1
0	24734	5.51	-1
0	25291	5.61	-1
0	25848	5.71	-1
0	26405	5.81	-1
0	26962	5.91	-1
0	27527	6.01	-1
0	28084	6.11	-1
0	28641	6.21	-1
0	29198	6.31	-1
0	29755	6.41	-1
0	30312	6.51	-1
0	30869	6.61	-1
0	31426	6.71	-1
0	31983	6.81	-1
0	32540	6.91	-1
0	33105	7.01	-1
0	33662	7.11	-1
0	34219	7.21	-1
0	34776	7.31	-1
0	35333	7.41	-1
0	35890	7.51	-1
0	36447	7.61	-1
0	37004	7.71	-1
0	37561	7.81	-1
0	38118	7.91	-1
0	38683	8.01	-1
0	39240	8.11	-1
0	39797	8.21	-1
0	40354	8.31	-1
0	40911	8.41	-1
0	41468	8.51	-1
0	42025	8.61	-1
0	42582	8.71	-1
0	43139	8.81	-1
0	43696	8.91	-1
0	44261	9.01	-1
0	44818	9.11	-1
0	45375	9.21	-1
0	45932	9.31	-1
0	46489	9.41	-1
0	47046	9.51	-1
0	47603	9.61	-1
0	48160	9.71	-1
0	48717	9.81	-1
0	49274	9.91	-1
0	49839	10.01	-1
0	50396	10.11	-1
0	50953	10.21	-1
0	51510	10.31	-1
0	52067	10.41	-1
0	52624	10.51	-1
0	53181	10.61	-1
0	53738	10.71	-1
0	54295	10.81	-1
0	54852	10.91	-1
0	55417	11.01	-1
0	55974	11.11	-1
0	56531	11.21	-1
0	57088	11.31	-1
0	57645	11.41	-1
0	58202	11.51	-1
0	58759	11.61	-1
0	59316	11.71	-1
0	59873	11.81	-1
0	60430	11.91	-1
0	60995	12.01	-1
0	61552	12.11	-1
0	62109	12.21	-1
0	62666	12.31	-1
0	63223	12.41	-1
0	63780	12.51	-1
0	64337	12.61	-1
0	64894	12.71	-1
0	65451	12.81	-1
0	66008	12.91	-1
0	66573	13.01	-1
0	67130	13.11	-1
0	67687	13.21	-1
0	68244	13.31	-1
0	68801	13.41	-1
0	69358	13.51	-1
0	69915	13.61	-1
0	70472	13.71	-1
0	71029	13.81	-1
0	71586	13.91	-1
0	72151	14.01	-1
0	72708	14.11	-1
0	73265	14.21	-1
0	73822	14.31	-1
0	74379	14.41	-1
0	74936	14.51	-1
0	75493	14.61	-1
0	76050	14.71	-1
0	76607	14.81	-1
0	77164	14.91	-1
0	77729	15.01	-1
0	78286	15.11	-1
0	78843	15.21	-1
0	79400	15.31	-1
0	79957	15.41	-1
0	80514	15.51	-1
0	81071	15.61	-1
0	81628	15.71	-1
0	82185	15.81	-1
0	82742	15.91	-1
0	83307	16.01	-1
0	83864	16.11	-1
0	84421	16.21	-1
0	84978	16.31	-1
0	85535	16.41	-1
0	86092	16.51	-1
0	86649	16.61	-1
0	87206	16.71	-1
0	87763	16.81	-1
0	88320	16.91	-1
0	88885	17.01	-1
0	89442	17.11	-1
0	89999	17.21	-1
0	90556	17.31	-1
0	91113	17.41	-1
0	91670	17.51	-1
0	92227	17.61	-1
0	92784	17.71	-1
0	93341	17.81	-1
0	93898	17.91	-1
0	94463	18.01	-1
0	95020	18.11	-1
0	95577	18.21	-1
0	96134	18.31	-1
0	96691	18.41	-1
0	97248	18.51	-1
0	97805	18.61	-1
0	98362	18.71	-1
0	98919	18.81	-1
0	99476	18.91	-1
0	100041	19.01	-1
0	100598	19.11	-1
0	101155	19.21	-1
0	101712	19.31	-1
0	102269	19.41	-1
0	102826	19.51	-1
0	103383	19.61	-1
0	103940	19.71	-1
0	104497	19.81	-1
0	105054	19.91	-1
0	105619	20.01	-1
0	106176	20.11	-1
0	106733	20.21	-1
0	107290	20.31	-1
0	107847	20.41	-1
0	108404	20.51	-1
0	108961	20.61	-1
0	109518	20.71	-1
0	110075	20.81	-1
0	110632	20.91	-1
0	111197	21.01	-1
0	111754	21.11	-1
0	112311	21.21	-1
0	112868	21.31	-1
0	113425	21.41	-1
0	113982	21.51	-1
0	114539	21.61	-1
0	115096	21.71	-1
0	115653	21.81	-1
0	116210	21.91	-1
0	116775	22.01	-1
0	117332	22.11	-1
0	117889	22.21	-1
0	118446	22.31	-1
0	119003	22.41	-1
0	119560	22.51	-1
0	120117	22.61	-1
0	120674	22.71	-1
0	121231	22.81	-1
0	121788	22.91	-1
0	122353	23.01	-1
0	122910	23.11	-1
0	123467	23.21	-1
0	124024	23.31	-1
0	124581	23.41	-1
0	125138	23.51	-1
0	125695	23.61	-1
0	126252	23.71	-1
0	126809	23.81	-1
0	127366	23.91	-1
0	127931	24.01	-1
0	128488	24.11	-1
0	129045	24.21	-1
0	129602	24.31	-1
0	130159	24.41	-1
0	130716	24.51	-1
0	131273	24.61	-1
0	131830	24.71	-1
0	132387	24.81	-1
0	132944	24.91	-1
0	133509	25.01	-1
0	134066	25.11	-1
0	134623	25.21	-1
0	135180	25.31	-1
0	135737	25.41	-1
0	136294	25.51	-1
0	136851	25.61	-1
0	137408	25.71	-1
0	137965	25.81	-1
0	138522	25.91	-1
0	139087	26.01	-1
0	139644	26.11	-1
0	140201	26.21	-1
0	140758	26.31	-1
0	141315	26.41	-1
0	141872	26.51	-1
0	142429	26.61	-1
0	142986	26.71	-1
0	143543	26.81	-1
0	144100	26.91	-1
0	144665	27.01	-1
0	145222	27.11	-1
0	145779	27.21	-1
0	146336	27.31	-1
0	146893	27.41	-1
0	147450	27.51	-1
0	148007	27.61	-1
0	148564	27.71	-1
0	149121	27.81	-1
0	149678	27.91	-1
0	150243	28.01	-1
0	150800	28.11	-1
0	151357	28.21	-1
0	151914	28.31	-1
0	152471	28.41	-1
0	153028	28.51	-1
0	153585	28.61	-1
0	154142	28.71	-1
0	154699	28.81	-1
0	155256	28.91	-1
0	155821	29.01	-1
0	156378	29.11	-1
0	156935	29.21	-1
0	157492	29.31	-1
0	158049	29.41	-1
0	158606	29.51	-1
0	159163	29.61	-1
0	159720	29.71	-1
0	160277	29.81	-1
0	160834	29.91	-1
0	161399	30.01	-1
0	161956	30.11	-1
0	162513	30.21	-1
0	163070	30.31	-1
0	163627	30.41	-1
0	164184	30.51	-1
0	164741	30.61	-1
0	165298	30.71	-1
0	165855	30.81	-1
0	166412	30.91	-1
0	166977	31.01	-1
0	167534	31.11	-1
0	168091	31.21	-1
0	168648	31.31	-1
0	169205	31.41	-1
0	169762	31.51	-1
0	170319	31.61	-1
0	170876	31.71	-1
0	171433	31.81	-1
0	171990	31.91	-1
0	172555	32.01	-1
0	173112	32.11	-1
0	173669	32.21	-1
0	174226	32.31	-1
0	174783	32.41	-1
0	175340	32.51	-1
0	175897	32.61	-1
0	176454	32.71	-1
0	177011	32.81	-1
0	177568	32.91	-1
0	178133	33.01	-1
2	232	1.11	0
2	788	1.21	0
2	1344	1.31	0
2	1900	1.41	0
2	2456	1.51	0
2	3012	1.61	0
2	3568	1.71	0
2	4124	1.81	0
2	4680	1.91	0
2	5244	2.01	0
2	5800	2.11	0
2	6356	2.21	0
2	6912	2.31	0
2	7468	2.41	0
2	8024	2.51	0
2	8580	2.61	0
2	9136	2.71	0
2	9692	2.81	0
2	10248	2.91	0
2	10812	3.01	0
2	11368	3.11	0
2	11924	3.21	0
2	12480	3.31	0
2	13036	3.41	0
2	13592	3.51	0
2	14148	3.61	0
2	14704	3.71	0
2	15260	3.81	0
2	15816	3.91	0
2	16380	4.01	0
2	16936	4.11	0
2	17492	4.21	0
2	18048	4.31	0
2	18604	4.41	0
2	19160	4.51	0
2	19716	4.61	0
2	20272	4.71	0
2	20828	4.81	0
2	21384	4.91	0
2	21949	5.01	0
2	22506	5.11	0
2	23063	5.21	0
2	23620	5.31	0
2	24177	5.41	0
2	24734	5.51	0
2	25291	5.61	0
2	25848	5.71	0
2	26405	5.81	0
2	26962	5.91	0
2	27527	6.01	0
2	28084	6.11	0
2	28641	6.21	0
2	29198	6.31	0
2	29755	6.41	0
2	30312	6.51	0
2	30869	6.61	0
2	31426	6.71	0
2	31983	6.81	0
2	32540	6.91	0
2	33105	7.01	0
2	33662	7.11	0
2	34219	7.21	0
2	34776	7.31	0
2	35333	7.41	0
2	35890	7.51	0
2	36447	7.61	0
2	37004	7.71	0
2	37561	7.81	0
2	38118	7.91	0
2	38683	8.01	0
2	39240	8.11	0
2	39797	8.21	0
2	40354	8.31	0
2	40911	8.41	0
2	41468	8.51	0
2	42025	8.61	0
2	42582	8.71	0
2	43139	8.81	0
2	43696	8.91	0
2	44261	9.01	0
2	44818	9.11	0
2	45375	9.21	0
2	45932	9.31	0
2	46489	9.41	0
2	47046	9.51	0
2	47603	9.61	0
2	48160	9.71	0
2	48717	9.81	0
2	49274	9.91	0
2	49839	10.01	0
2	50396	10.11	0
2	50953	10.21	0
2	51510	10.31	0
2	52067	10.41	0
2	52624	10.51	0
2	53181	10.61	0
2	53738	10.71	0
2	54295	10.81	0
2	54852	10.91	0
2	55417	11.01	0
2	55974	11.11	0
2	56531	11.21	0
2	57088	11.31	0
2	57645	11.41	0
2	58202	11.51	0
2	58759	11.61	0
2	59316	11.71	0
2	59873	11.81	0
2	60430	11.91	0
2	60995	12.01	0
2	61552	12.11	0
2	62109	12.21	0
2	62666	12.31	0
2	63223	12.41	0
2	63780	12.51	0
2	64337	12.61	0
2	64894	12.71	0
2	65451	12.81	0
2	66008	12.91	0
2	66573	13.01	0
2	67130	13.11	0
2	67687	13.21	0
2	68244	13.31	0
2	68801	13.41	0
2	69358	13.51	0
2	69915	13.61	0
2	70472	13.71	0
2	71029	13.81	0
2	71586	13.91	0
2	72151	14.01	0
2	72708	14.11	0
2	73265	14.21	0
2	73822	14.31	0
2	74379	14.41	0
2	74936	14.51	0
2	75493	14.61	0
2	76050	14.71	0
2	76607	14.81	0
2	77164	14.91	0
2	77729	15.01	0
2	78286	15.11	0
2	78843	15.21	0
2	79400	15.31	0
2	79957	15.41	0
2	80514	15.51	0
2	81071	15.61	0
2	81628	15.71	0
2	82185	15.81	0
2	82742	15.91	0
2	83307	16.01	0
2	83864	16.11	0
2	84421	16.21	0
2	84978	16.31	0
2	85535	16.41	0
2	86092	16.51	0
2	86649	16.61	0
2	87206	16.71	0
2	87763	16.81	0
2	88320	16.91	0
2	88885	17.01	0
2	89442	17.11	0
2	89999	17.21	0
2	90556	17.31	0
2	91113	17.41	0
2	91670	17.51	0
2	92227	17.61	0
2	92784	17.71	0
2	93341	17.81	0
2	93898	17.91	0
2	94463	18.01	0
2	95020	18.11	0
2	95577	18.21	0
2	96134	18.31	0
2	96691	18.41	0
2	97248	18.51	0
2	97805	18.61	0
2	98362	18.71	0
2	98919	18.81	0
2	99476	18.91	0
2	100041	19.01	0
2	100598	19.11	0
2	101155	19.21	0
2	101712	19.31	0
2	102269	19.41	0
2	102826	19.51	0
2	103383	19.61	0
2	103940	19.71	0
2	104497	19.81	0
2	105054	19.91	0
2	105619	20.01	0
2	106176	20.11	0
2	106733	20.21	0
2	107290	20.31	0
2	107847	20.41	0
2	108404	20.51	0
2	108961	20.61	0
2	109518	20.71	0
2	110075	20.81	0
2	110632	20.91	0
2	111197	21.01	0
2	111754	21.11	0
2	112311	21.21	0
2	112868	21.31	0
2	113425	21.41	0
2	113982	21.51	0
2	114539	21.61	0
2	115096	21.71	0
2	115653	21.81	0
2	116210	21.91	0
2	116775	22.01	0
2	117332	22.11	0
2	117889	22.21	0
2	118446	22.31	0
2	119003	22.41	0
2	119560	22.51	0
2	120117	22.61	0
2	120674	22.71	0
2	121231	22.81	0
2	121788	22.91	0
2	122353	23.01	0
2	122910	23.11	0
2	123467	23.21	0
2	124024	23.31	0
2	124581	23.41	0
2	125138	23.51	0
2	125695	23.61	0
2	126252	23.71	0
2	126809	23.81	0
2	127366	23.91	0
2	127931	24.01	0
2	128488	24.11	0
2	129045	24.21	0
2	129602	24.31	0
2	130159	24.41	0
2	130716	24.51	0
2	131273	24.61	0
2	131830	24.71	0
2	132387	24.81	0
2	132944	24.91	0
2	133509	25.01	0
2	134066	25.11	0
2	134623	25.21	0
2	135180	25.31	0
2	135737	25.41	0
2	136294	25.51	0
2	136851	25.61	0
2	137408	25.71	0
2	137965	25.81	0
2	138522	25.91	0
2	139087	26.01	0
2	139644	26.11	0
2	140201	26.21	0
2	140758	26.31	0
2	141315	26.41	0
2	141872	26.51	0
2	142429	26.61	0
2	142986	26.71	0
2	143543	26.81	0
2	144100	26.91	0
2	144665	27.01	0
2	145222	27.11	0
2	145779	27.21	0
2	146336	27.31	0
2	146893	27.41	0
2	147450	27.51	0
2	148007	27.61	0
2	148564	27.71	0
2	149121	27.81	0
2	149678	27.91	0
2	150243	28.01	0
2	150800	28.11	0
2	151357	28.21	0
2	151914	28.31	0
2	152471	28.41	0
2	153028	28.51	0
2	153585	28.61	0
2	154142	28.71	0
2	154699	28.81	0
2	155256	28.91	0
2	155821	29.01	0
2	156378	29.11	0
2	156935	29.21	0
2	157492	29.31	0
2	158049	29.41	0
2	158606	29.51	0
2	159163	29.61	0
2	159720	29.71	0
2	160277	29.81	0
2	160834	29.91	0
2	161399	30.01	0
2	161956	30.11	0
2	162513	30.21	0
2	163070	30.31	0
2	163627	30.41	0
2	164184	30.51	0
2	164741	30.61	0
2	165298	30.71	0
2	165855	30.81	0
2	166412	30.91	0
2	166977	31.01	0
2	167534	31.11	0
2	168091	31.21	0
2	168648	31.31	0
2	169205	31.41	0
2	169762	31.51	0
2	170319	31.61	0
2	170876	31.71	0
2	171433	31.81	0
2	171990	31.91	0
2	172555	32.01	0
2	173112	32.11	0
2	173669	32.21	0
2	174226	32.31	0
2	174783	32.41	0
2	175340	32.51	0
2	175897	32.61	0
2	176454	32.71	0
2	177011	32.81	0
2	177568	32.91	0
2	178133	33.01	0
10	5234	2	0
10	10802	3	0
10	16370	4	0
10	21939	5	0
10	27516	6	0
10	33094	7	0
10	38672	8	0
10	44250	9	0
10	49828	10	0
10	55406	11	0
10	60984	12	0
10	66562	13	0
10	72140	14	0
10	77718	15	0
10	83296	16	0
10	88874	17	0
10	94452	18	0
10	100030	19	0
10	105608	20	0
10	111186	21	0
10	116764	22	0
10	122342	23	0
10	127920	24	0
10	133498	25	0
10	139076	26	0
10	144654	27	0
10	150232	28	0
10	155810	29	0
10	161388	30	0
10	166966	31	0
10	172544	32	0
10	178122	33	0
9	5234	2	0.023625
9	10802	3	0.02625
9	16370	4	0.02625
9	21939	5	0.02625
9	27516	6	0.02625
9	33094	7	0.02625
9	38672	8	0.02625
9	44250	9	0.02625
9	49828	10	0.02625
9	55406	11	0.02625
9	60984	12	0.02625
9	66562	13	0.02625
9	72140	14	0.02625
9	77718	15	0.02625
9	83296	16	0.02625
9	88874	17	0.02625
9	94452	18	0.02625
9	100030	19	0.02625
9	105608	20	0.02625
9	111186	21	0.02625
9	116764	22	0.02625
9	122342	23	0.02625
9	127920	24	0.02625
9	133498	25	0.02625
9	139076	26	0.02625
9	144654	27	0.02625
9	150232	28	0.02625
9	155810	29	0.02625
9	161388	30	0.02625
9	166966	31	0.02625
9	172544	32	0.02625
9	178122	33	0.02625
8	5234	2	0
8	10802	3	0
8	16370	4	0
8	21939	5	0
8	27516	6	0
8	33094	7	0
8	38672	8	0
8	44250	9	0
8	49828	10	0
8	55406	11	0
8	60984	12	0
8	66562	13	0
8	72140	14	0
8	77718	15	0
8	83296	16	0
8	88874	17	0
8	94452	18	0
8	100030	19	0
8	105608	20	0
8	111186	21	0
8	116764	22	0
8	122342	23	0
8	127920	24	0
8	133498	25	0
8	139076	26	0
8	144654	27	0
8	150232	28	0
8	155810	29	0
8	161388	30	0
8	166966	31	0
8	172544	32	0
8	178122	33	0
29	233	1.11	0
29	789	1.21	-1.2618922889374e-06
29	1345	1.31	-1.2324122550922e-06
29	1901	1.41	-1.1863332193229e-06
29	2457	1.51	-1.1275013497425e-06
29	3013	1.61	-1.0592926477671e-06
29	3569	1.71	-9.8463792170378e-07
29	4125	1.81	-9.0605127326171e-07
29	4681	1.91	-8.2566080294555e-07
29	5245	2.01	-7.4524062171122e-07
29	5801	2.11	-6.6624306953145e-07
29	6357	2.21	-5.8983124944234e-07
29	6913	2.31	-5.1691056512482e-07
29	7469	2.41	-4.4815907500606e-07
29	8025	2.51	-3.8405660092167e-07
29	8581	2.61	-3.2491204251528e-07
29	9137	2.71	-2.7088878482573e-07
29	9693	2.81	-2.2202810868066e-07
29	10249	2.91	-1.7827071189913e-07
29	10813	3.01	-1.3947581805951e-07
29	11369	3.11	-1.0543856291179e-07
29	11925	3.21	-7.5905354322003e-08
29	12481	3.31	-5.0587117357281e-08
29	13037	3.41	-2.9171033872899e-08
29	13593	3.51	-1.1330418772104e-08
29	14149	3.61	3.2667782079443e-09
29	14705	3.71	1.4951036746425e-08
29	15261	3.81	2.4045556870078e-08
29	15817	3.91	3.0861816640027e-08
29	16381	4.01	3.5696115219253e-08
29	16937	4.11	3.8826805734971e-08
29	17493	4.21	4.0512529153602e-08
29	18049	4.31	4.0991202467922e-08
29	18605	4.41	4.0479462199983e-08
29	19161	4.51	3.917247966001e-08
29	19717	4.61	3.7244424788696e-08
29	20273	4.71	3.4849126961944e-08
29	20829	4.81	3.2120870798735e-08
29	21385	4.91	2.9175607494381e-08
29	21950	5.01	2.6112020634628e-08
29	22507	5.11	2.3012907774955e-08
29	23064	5.21	0.34748370513073
29	23621	5.31	0.68360075071678
29	24178	5.41	0.99798973236223
29	24735	5.51	1.2817347060703
29	25292	5.61	1.5001896383288
29	25849	5.71	1.5002686971107
29	26406	5.81	1.5003708754274
29	26963	5.91	1.5004905894367
29	27528	6.01	1.5006223406383
29	28085	6.11	1.5007617458448
29	28642	6.21	1.5009053275378
29	29199	6.31	1.5010503428585
29	29756	6.41	1.5011946441698
29	30313	6.51	1.5013365654114
29	30870	6.61	1.4387731180685
29	31427	6.71	1.1735495654597
29	31984	6.81	0.87219974916866
29	32541	6.91	0.54211026451654
29	33106	7.01	0.19091679528087
29	33663	7.11	-0.17362316920072
29	34220	7.21	-0.54375452933819
29	34777	7.31	-0.91184458949802
29	35334	7.41	-1.2704977826317
29	35891	7.51	-1.4993511342265
29	36448	7.61	-1.499641319338
29	37005	7.71	-1.4999346181851
29	37562	7.81	-1.5002259324433
29	38119	7.91	-1.5005114737757
29	38684	8.01	-1.5007884839904
29	39241	8.11	-1.5010550112389
29	39798	8.21	-1.5013097314084
29	40355	8.31	-1.5015518059124
29	40912	8.41	-1.5017807687595
29	41469	8.51	-1.5019964371385
29	42026	8.61	-1.5021988408608
29	42583	8.71	-1.5023881668992
29	43140	8.81	-1.5025647159871
29	43697	8.91	-1.5027288688329
29	44262	9.01	-1.5028810599817
29	44819	9.11	-1.5030217577423
29	45376	9.21	-1.5031514489095
29	45933	9.31	-1.5032706272657
29	46490	9.41	-1.503379785049
29	47047	9.51	-1.5034793943763
29	47604	9.61	-1.1236105952409
29	48161	9.71	-0.68838376304628
29	48718	9.81	-0.24483235198243
29	49275	9.91	0.19643864162157
29	49840	10.01	0.62561704791549
29	50397	10.11	1.0337536606251
29	50954	10.21	1.4128218833251
29	51511	10.31	1.4976314960677
29	52068	10.41	1.4979733832738
29	52625	10.51	1.4983176475658
29	53182	10.61	1.4986590663765
29	53739	10.71	1.4989937534933
29	54296	10.81	1.4993188749796
29	54853	10.91	1.4996324217942
29	55418	11.01	1.4999330281576
29	55975	11.11	1.5002198267852
29	56532	11.21	1.5004923337937
29	57089	11.31	1.5007503574582
29	57646	11.41	1.5009939261089
29	58203	11.51	1.5012232313643
29	58760	11.61	1.5014385836263
29	59317	11.71	1.5016403773631
29	59874	11.81	1.5018290641837
29	60431	11.91	1.4693932416932
29	60996	12.01	1.0872346052376
29	61553	12.11	0.68124193249209
29	62110	12.21	0.26179322516116
29	62667	12.31	-0.16118537423118
29	63224	12.41	-0.5783163521338
29	63781	12.51	-0.98085882376728
29	64338	12.61	-1.3607874727412
29	64895	12.71	-1.4986901020779
29	65452	12.81	-1.4989832553115
29	66009	12.91	-1.4992801677847
29	66574	13.01	-1.4995756118754
29	67131	13.11	-1.4998656953866
29	67688	13.21	-1.5001475767335
29	68245	13.31	-1.5004192371249
29	68802	13.41	-1.5006792987102
29	69359	13.51	-1.500926879753
29	69916	13.61	-1.5011614795901
29	70473	13.71	-1.501382887518
29	71030	13.81	-1.501591110871
29	71587	13.91	-1.5017863184627
29	72152	14.01	-1.5019687963076
29	72709	14.11	-1.5021389131315
29	73266	14.21	-1.5022970936711
29	73823	14.31	-1.5024437981524
29	74380	14.41	-1.5025795066568
29	74937	14.51	-1.2456123605095
29	75494	14.61	-0.83558394712035
29	76051	14.71	-0.41006509013921
29	76608	14.81	0.020544590522502
29	77165	14.91	0.44645110509394
29	77730	15.01	0.85855132926364
29	78287	15.11	1.2485087024516
29	78844	15.21	1.4980149028147
29	79401	15.31	1.4983277597444
29	79958	15.41	1.4986478142124
29	80515	15.51	1.4989689469077
29	81072	15.61	1.4992865417387
29	81629	15.71	1.4995971709524
29	82186	15.81	1.4998983426004
29	82743	15.91	1.5001882983679
29	83308	16.01	1.5004658520447
29	83865	16.11	1.5007302607541
29	84422	16.21	1.5009811225523
29	84979	16.31	1.501218295227
29	85536	16.41	1.5014418321131
29	86093	16.51	1.5016519315436
29	86650	16.61	1.5018488972094
29	87207	16.71	1.5020331072244
29	87764	16.81	1.5022049901258
29	88321	16.91	1.5023650062632
29	88886	17.01	1.1899315502411
29	89443	17.11	0.78110746161174
29	90000	17.21	0.35755249431321
29	90557	17.31	-0.07050476365286
29	91114	17.41	-0.49342125646265
29	91671	17.51	-0.90222559042133
29	92228	17.61	-1.2886948117506
29	92785	17.71	-1.4980874862137
29	93342	17.81	-1.4983817040909
29	93899	17.91	-1.4986836764635
29	94464	18.01	-1.4989873643853
29	95021	18.11	-1.4992882047391
29	95578	18.21	-1.4995828015816
29	96135	18.31	-1.4998686785543
29	96692	18.41	-1.5001440806282
29	97249	18.51	-1.5004078156662
29	97806	18.61	-1.500659128081
29	98363	18.71	-1.5008975983366
29	98920	18.81	-1.5011230632274
29	99477	18.91	-1.5013355528389
29	100042	19.01	-1.5015352408789
29	100599	19.11	-1.501722405706
29	101156	19.21	-1.5018973998985
29	101713	19.31	-1.5020606266284
29	102270	19.41	-1.5022125214415
29	102827	19.51	-1.2102939633441
29	103384	19.61	-0.80102976723791
29	103941	19.71	-0.37675312319294
29	104498	19.81	0.052244056452427
29	105055	19.91	0.47626282653743
29	105620	20.01	0.88628300904749
29	106177	20.11	1.2740395723301
29	106734	20.21	1.4982775943681
29	107291	20.31	1.4985767182986
29	107848	20.41	1.4988833772395
29	108405	20.51	1.4991915039672
29	108962	20.61	1.499496517187
29	109519	20.71	1.4997950105722
29	110076	20.81	1.5000845033428
29	110633	20.91	1.5003632405602
29	111198	21.01	1.5006300335439
29	111755	21.11	1.5008841326302
29	112312	21.21	1.5011251259696
29	112869	21.31	1.501352859257
29	113426	21.41	1.5015673722699
29	113983	21.51	1.5017688488732
29	114540	21.61	1.5019575778011
29	115097	21.71	1.5021339220402
29	115654	21.81	1.5022982950657
29	116211	21.91	1.5024511425223
29	116776	22.01	1.2029291099573
29	117333	22.11	0.7938253215294
29	117890	22.21	0.36981355532475
29	118447	22.31	-0.05883775118061
29	119004	22.41	-0.48245037349258
29	119561	22.51	-0.8920222218946
29	120118	22.61	-1.2793038679937
29	120675	22.71	-1.4980395078685
29	121232	22.81	-1.4983387337073
29	121789	22.91	-1.4986455857937
29	122354	23.01	-1.4989540035651
29	122911	23.11	-1.4992594091487
29	123468	23.21	-1.4995583971883
29	124025	23.31	-1.4998484860436
29	124582	23.41	-1.5001279185727
29	125139	23.51	-1.5003955029294
29	125696	23.61	-1.5006504856188
29	126253	23.71	-1.5008924505222
29	126810	23.81	-1.5011212388037
29	127367	23.91	-1.5013368855802
29	127932	24.01	-1.5015395700264
29	128489	24.11	-1.50172957623
29	129046	24.21	-1.501907262628
29	129603	24.31	-1.5020730382804
29	130160	24.41	-1.5022273445761
29	130717	24.51	-1.2055285631336
29	131274	24.61	-0.79636705031053
29	131831	24.71	-0.37225877299458
29	132388	24.81	0.056519120283544
29	132945	24.91	0.48028071595417
29	133510	25.01	0.89001721200742
29	134067	25.11	1.2774733898766
29	134624	25.21	1.4982492124268
29	135181	25.31	1.4985467421875
29	135738	25.41	1.498851882197
29	136295	25.51	1.4991585694639
29	136852	25.61	1.4994622248696
29	137409	25.71	1.4997594427044
29	137966	25.81	1.5000477416384
29	138523	25.91	1.5003253653245
29	139088	26.01	1.5005911230563
29	139645	26.11	1.5008442627137
29	140202	26.21	1.5010843697054
29	140759	26.31	1.5013112868109
29	141316	26.41	1.5015250508018
29	141873	26.51	1.5017258425114
[...]
123	85178	16.341815792817	0.099998659858
123	85735	16.44182745278	0.100011659963
123	86292	16.541826112857	0.099998660077
123	86849	16.641824773049	0.099998660192
123	87406	16.741823433364	0.099998660315
123	87963	16.841822093805	0.099998660441
123	88520	16.941820754371	0.099998660566
123	89085	17.041819415069	0.099998660698
123	89642	17.141818075897	0.099998660828
123	90199	17.241816736846	0.099998660949
123	90756	17.341815397903	0.099998661057
123	91313	17.44182705905	0.100011661147
123	91870	17.541825720266	0.099998661216
123	92427	17.641824381529	0.099998661263
123	92984	17.741823042814	0.099998661285
123	93541	17.841821704096	0.099998661282
123	94098	17.941820365355	0.099998661259
123	94663	18.041819026574	0.099998661219
123	95220	18.141817687739	0.099998661165
123	95777	18.241816348836	0.099998661097
123	96334	18.341815009855	0.099998661019
123	96891	18.441826670789	0.100011660934
123	97448	18.541825331627	0.099998660838
123	98005	18.641823992365	0.099998660738
123	98562	18.741822652998	0.099998660633
123	99119	18.841821313518	0.09999866052
123	99676	18.94181997392	0.099998660402
123	100241	19.041818634202	0.099998660282
123	100798	19.141817294355	0.099998660153
123	101355	19.241815954381	0.099998660026
123	101912	19.341827614272	0.100011659891
123	102469	19.441826274026	0.099998659754
123	103026	19.54182493364	0.099998659614
123	103583	19.641823593117	0.099998659477
123	104140	19.741822252466	0.099998659349
123	104697	19.841820911698	0.099998659232
123	105254	19.941819570833	0.099998659135
123	105819	20.041818229891	0.099998659058
123	106376	20.141816888893	0.099998659002
123	106933	20.241815547866	0.099998658973
123	107490	20.341827206835	0.100011658969
123	108047	20.441825865822	0.099998658987
123	108604	20.541824524841	0.099998659019
123	109161	20.641823183909	0.099998659068
123	109718	20.74182184304	0.099998659131
123	110275	20.841820502239	0.099998659199
123	110832	20.941819161522	0.099998659283
123	111397	21.041817820892	0.09999865937
123	111954	21.141816480359	0.099998659467
123	112511	21.241815139928	0.099998659569
123	113068	21.341826799604	0.100011659676
123	113625	21.441825459393	0.099998659789
123	114182	21.5418241193	0.099998659907
123	114739	21.641822779331	0.099998660031
123	115296	21.741821439488	0.099998660157
123	115853	21.841820099773	0.099998660285
123	116410	21.941818760193	0.09999866042
123	116975	22.041817420751	0.099998660558
123	117532	22.141816081442	0.099998660691
123	118089	22.241814742258	0.099998660816
123	118646	22.341826403187	0.100011660929
123	119203	22.441825064212	0.099998661025
123	119760	22.541823725313	0.099998661101
123	120317	22.641822386465	0.099998661152
123	120874	22.741821047643	0.099998661178
123	121431	22.841819708824	0.099998661181
123	121988	22.941818369987	0.099998661163
123	122553	23.041817031115	0.099998661128
123	123110	23.141815692192	0.099998661077
123	123667	23.241827353207	0.100011661015
123	124224	23.341826014149	0.099998660942
123	124781	23.441824675009	0.09999866086
123	125338	23.541823335778	0.099998660769
123	125895	23.641821996451	0.099998660673
123	126452	23.741820657021	0.09999866057
123	127009	23.841819317482	0.099998660461
123	127566	23.941817977831	0.099998660349
123	128131	24.041816638061	0.09999866023
123	128688	24.141815298169	0.099998660108
123	129245	24.241826958152	0.100011659983
123	129802	24.341825618005	0.099998659853
123	130359	24.441824277723	0.099998659718
123	130916	24.541822937304	0.099998659581
123	131473	24.641821596753	0.099998659449
123	132030	24.741820256077	0.099998659324
123	132587	24.841818915288	0.099998659211
123	133144	24.941817574404	0.099998659116
123	133709	25.041816233445	0.099998659041
123	134266	25.141814892435	0.09999865899
123	134823	25.241826551401	0.100011658966
123	135380	25.341825210364	0.099998658963
123	135937	25.441823869348	0.099998658984
123	136494	25.541822528369	0.099998659021
123	137051	25.641821187441	0.099998659072
123	137608	25.741819846576	0.099998659135
123	138165	25.841818505785	0.099998659209
123	138722	25.941817165077	0.099998659292
123	139287	26.041815824462	0.099998659385
123	139844	26.141827483946	0.100011659484
123	140401	26.241826143535	0.099998659589
123	140958	26.341824803234	0.099998659699
123	141515	26.441823463046	0.099998659812
123	142072	26.541822122981	0.099998659935
123	142629	26.641820783039	0.099998660058
123	143186	26.741819443227	0.099998660188
123	143743	26.841818103545	0.099998660318
123	144300	26.941816764001	0.099998660456
123	144865	27.041815424596	0.099998660595
123	145422	27.141827085325	0.100011660729
123	145979	27.241825746184	0.099998660859
123	146536	27.341824407156	0.099998660972
123	147093	27.441823068228	0.099998661072
123	147650	27.541821729375	0.099998661147
123	148207	27.641820390577	0.099998661202
123	148764	27.741819051806	0.099998661229
123	149321	27.84181771304	0.099998661234
123	149878	27.941816374257	0.099998661217
123	150443	28.041815035439	0.099998661182
123	151000	28.141826696575	0.100011661136
123	151557	28.241825357648	0.099998661073
123	152114	28.34182401865	0.099998661002
123	152671	28.441822679569	0.099998660919
123	153228	28.541821340402	0.099998660833
123	153785	28.641820001139	0.099998660737
123	154342	28.741818661775	0.099998660636
123	154899	28.841817322304	0.099998660529
123	155456	28.941815982721	0.099998660417
123	156021	29.041827643021	0.1000116603
123	156578	29.141826303198	0.099998660177
123	157135	29.241824963251	0.099998660053
123	157692	29.341823623176	0.099998659925
123	158249	29.441822282966	0.09999865979
123	158806	29.541820942623	0.099998659657
123	159363	29.641819602148	0.099998659525
123	159920	29.741818261548	0.0999986594
123	160477	29.841816920835	0.099998659287
123	161034	29.941815580029	0.099998659194
123	161599	30.041827239149	0.10001165912
123	162156	30.141825898219	0.09999865907
123	162713	30.241824557276	0.099998659057
123	163270	30.341823216375	0.099998659099
123	163827	30.441821875595	0.09999865922
123	164384	30.541820535023	0.099998659428
123	164941	30.641819194765	0.099998659742
123	165498	30.741817854935	0.09999866017
123	166055	30.841816515658	0.099998660723
123	166612	30.941815177064	0.099998661406
123	167177	31.041826839289	0.100011662225
123	167734	31.141825502481	0.099998663192
123	168291	31.241824166783	0.099998664302
123	168848	31.341822832348	0.099998665565
123	169405	31.441821499331	0.099998666983
123	169962	31.54182016789	0.099998668559
123	170519	31.641818838187	0.099998670297
123	171076	31.741817510382	0.099998672195
123	171633	31.841816184642	0.09999867426
123	172190	31.941814861133	0.099998676491
123	172755	32.041826540025	0.100011678892
123	173312	32.141825221479	0.099998681454
123	173869	32.241823905655	0.099998684176
123	174426	32.341822592709	0.099998687054
123	174983	32.441821282795	0.099998690086
123	175540	32.541819976062	0.099998693267
123	176097	32.641818672659	0.099998696597
123	176654	32.741817372731	0.099998700072
123	177211	32.841816076426	0.099998703695
123	177768	32.941814783897	0.099998707471
124	1242	1.287402260872	0.100011660457
124	1798	1.387400921329	0.099998660457
124	2354	1.487399581786	0.099998660457
124	2910	1.587398242243	0.099998660457
124	3466	1.6873969027	0.099998660457
124	4022	1.787395563157	0.099998660457
124	4578	1.887394223614	0.099998660457
124	5134	1.987392884071	0.099998660457
124	5698	2.087391544528	0.099998660457
124	6254	2.187403204985	0.100011660457
124	6810	2.287401865442	0.099998660457
124	7366	2.387400525899	0.099998660457
124	7922	2.487399186356	0.099998660457
124	8478	2.587397846813	0.099998660457
124	9034	2.68739650727	0.099998660457
124	9590	2.787395167727	0.099998660457
124	10146	2.887393828184	0.099998660457
124	10702	2.987392488641	0.099998660457
124	11266	3.087391149098	0.099998660457
124	11822	3.187402809555	0.100011660457
124	12378	3.287401470012	0.099998660457
124	12934	3.387400130469	0.099998660457
124	13490	3.487398790926	0.099998660457
124	14046	3.587397451383	0.099998660457
124	14602	3.68739611184	0.099998660457
124	15158	3.787394772297	0.099998660457
124	15714	3.887393432754	0.099998660457
124	16270	3.987392093211	0.099998660457
124	16834	4.087390753668	0.099998660457
124	17390	4.187402414125	0.100011660457
124	17946	4.287401074582	0.099998660457
124	18502	4.387399735039	0.099998660457
124	19058	4.487398395496	0.099998660457
124	19614	4.587397055953	0.099998660457
124	20170	4.68739571641	0.099998660457
124	20726	4.787394376867	0.099998660457
124	21282	4.887393037324	0.099998660457
124	21838	4.987391697781	0.099998660457
124	22403	5.087403358238	0.100011660457
124	22960	5.187402018695	0.099998660457
124	23517	5.287400679156	0.099998660461
124	24068	5.387399339626	0.09999866047
124	24625	5.487398000119	0.099998660493
124	25182	5.587396660648	0.099998660529
124	25739	5.687395321232	0.099998660584
124	26296	5.787393981883	0.099998660651
124	26853	5.887392642618	0.099998660735
124	27410	5.987391303446	0.099998660828
124	27975	6.087402964377	0.100011660931
124	28532	6.187401625421	0.099998661044
124	29089	6.287400286582	0.099998661161
124	29646	6.387398947869	0.099998661287
124	30203	6.487397609287	0.099998661418
124	30760	6.58739627084	0.099998661553
124	31317	6.687394932533	0.099998661693
124	31874	6.787393594368	0.099998661835
124	32431	6.887392256339	0.099998661971
124	32988	6.98739091844	0.099998662101
124	33553	7.08740258066	0.10001166222
124	34110	7.187401242981	0.099998662321
124	34667	7.287399905389	0.099998662408
124	35224	7.38739856786	0.099998662471
124	35781	7.48739723037	0.09999866251
124	36338	7.587395892896	0.099998662526
124	36895	7.687394555414	0.099998662518
124	37452	7.787393217908	0.099998662494
124	38009	7.887391880362	0.099998662454
124	38566	7.98739054276	0.099998662398
124	39131	8.087402205092	0.100011662332
124	39688	8.187400867349	0.099998662257
124	40245	8.287399529522	0.099998662173
124	40802	8.387398191602	0.09999866208
124	41359	8.487396853585	0.099998661983
124	41916	8.587395515463	0.099998661878
124	42473	8.687394177229	0.099998661766
124	43030	8.787392838881	0.099998661652
124	43587	8.887391500413	0.099998661532
124	44144	8.987403161821	0.100011661408
124	44715	9.087401823101	0.09999866128
124	45272	9.187400484248	0.099998661147
124	45829	9.28739914526	0.099998661012
124	46386	9.387397806129	0.099998660869
124	46943	9.487396466854	0.099998660725
124	47500	9.587395127435	0.099998660581
124	48057	9.687393787867	0.099998660432
124	48614	9.787392448158	0.099998660291
124	49171	9.887391108318	0.09999866016
124	49728	9.987402768365	0.100011660047
124	50293	10.087401428319	0.099998659954
124	50850	10.187400088203	0.099998659884
124	51407	10.287398748044	0.099998659841
124	51964	10.387397407865	0.099998659821
124	52521	10.487396067691	0.099998659826
124	53078	10.587394727538	0.099998659847
124	53635	10.687393387422	0.099998659884
124	54192	10.787392047359	0.099998659937
124	54749	10.887390707357	0.099998659998
124	55306	10.987402367427	0.10001166007
124	55871	11.087401027577	0.09999866015
124	56428	11.187399687816	0.099998660239
124	56985	11.287398348145	0.099998660329
124	57542	11.387397008574	0.099998660429
124	58099	11.487395669108	0.099998660534
124	58656	11.587394329751	0.099998660643
124	59207	11.68739299051	0.099998660759
124	59764	11.787391651385	0.099998660875
124	60321	11.887403312384	0.100011660999
124	60878	11.987401973508	0.099998661124
124	61443	12.087400634758	0.09999866125
124	62000	12.187399296126	0.099998661368
124	62557	12.287397957606	0.09999866148
124	63114	12.387396619177	0.099998661571
124	63671	12.487395280823	0.099998661646
124	64228	12.587393942521	0.099998661698
124	64785	12.687392604245	0.099998661724
124	65342	12.78739126597	0.099998661725
124	65899	12.887402927674	0.100011661704
124	66456	12.987401589339	0.099998661665
124	67021	13.087400250949	0.09999866161
124	67578	13.187398912491	0.099998661542
124	68135	13.287397573953	0.099998661462
124	68692	13.387396235326	0.099998661373
124	69249	13.487394896601	0.099998661275
124	69806	13.587393557774	0.099998661173
124	70363	13.687392218836	0.099998661062
124	70920	13.787390879782	0.099998660946
124	71483	13.887402540606	0.100011660824
124	72040	13.987401201304	0.099998660698
124	72605	14.087399861872	0.099998660568
124	73162	14.187398522305	0.099998660433
124	73719	14.2873971826	0.099998660295
124	74276	14.387395842754	0.099998660154
124	74833	14.487394502762	0.099998660008
124	75390	14.587393162623	0.099998659861
124	75947	14.687391822343	0.09999865972
124	76504	14.787403481927	0.100011659584
124	77061	14.887402141393	0.099998659466
124	77618	14.98740080076	0.099998659367
124	78183	15.087399460047	0.099998659287
124	78740	15.187398119281	0.099998659234
124	79297	15.287396778488	0.099998659207
124	79854	15.38739543769	0.099998659202
124	80411	15.487394096911	0.099998659221
124	80968	15.587392756164	0.099998659253
124	81525	15.687391415465	0.099998659301
124	82082	15.787403074825	0.10001165936
124	82639	15.887401734256	0.099998659431
124	83196	15.987400393764	0.099998659508
124	83761	16.087399053358	0.099998659594
124	84318	16.187397713047	0.099998659689
124	84875	16.287396372834	0.099998659787
124	85432	16.387395032726	0.099998659892
124	85989	16.487393692727	0.099998660001
124	86546	16.587392352842	0.099998660115
124	87097	16.687391013077	0.099998660235
124	87654	16.787402673435	0.100011660358
124	88211	16.887401333919	0.099998660484
124	88768	16.987399994533	0.099998660614
124	89333	17.087398655279	0.099998660746
124	89890	17.187397316154	0.099998660875
124	90447	17.287395977148	0.099998660994
124	91004	17.387394638245	0.099998661097
124	91561	17.487393299427	0.099998661182
124	92118	17.587391960669	0.099998661242
124	92675	17.68739062195	0.099998661281
124	93232	17.787402283243	0.100011661293
124	93789	17.887400944526	0.099998661283
124	94346	17.987399605778	0.099998661252
124	94911	18.087398266987	0.099998661209
124	95468	18.187396928133	0.099998661146
124	96025	18.287395589208	0.099998661075
124	96582	18.387394250202	0.099998660994
124	97139	18.487392911106	0.099998660904
124	97696	18.587391571913	0.099998660807
124	98253	18.687403232617	0.100011660704
124	98810	18.787401893213	0.099998660596
124	99373	18.887400553693	0.09999866048
124	99930	18.987399214056	0.099998660363
124	100495	19.087397874292	0.099998660236
124	101052	19.187396534402	0.09999866011
124	101609	19.287395194381	0.099998659979
124	102166	19.387393854222	0.099998659841
124	102723	19.487392513926	0.099998659704
124	103280	19.587391173488	0.099998659562
124	103837	19.687402832915	0.100011659427
124	104394	19.787401492214	0.099998659299
124	104951	19.887400151404	0.09999865919
124	105508	19.987398810502	0.099998659098
124	106073	20.08739746953	0.099998659028
124	106630	20.187396128511	0.099998658981
124	107187	20.287394787473	0.099998658962
124	107744	20.387393446439	0.099998658966
124	108301	20.487392105428	0.099998658989
124	108858	20.587390764458	0.09999865903
124	109415	20.687402423542	0.100011659084
124	109972	20.78740108269	0.099998659148
124	110529	20.887399741914	0.099998659224
124	111086	20.987398401224	0.09999865931
124	111651	21.087397060623	0.099998659399
124	112208	21.187395720123	0.0999986595
124	112765	21.287394379727	0.099998659604
124	113322	21.38739303944	0.099998659713
124	113879	21.48739169927	0.09999865983
124	114436	21.587403359219	0.100011659949
124	114987	21.687402019294	0.099998660075
124	115544	21.787400679495	0.099998660201
124	116101	21.887399339829	0.099998660334
124	116658	21.987398000299	0.09999866047
124	117223	22.087396660907	0.099998660608
124	117780	22.187395321647	0.09999866074
124	118337	22.28739398251	0.099998660863
124	118894	22.387392643484	0.099998660974
124	119451	22.487391304545	0.099998661061
124	120008	22.587402965674	0.100011661129
124	120565	22.687401626846	0.099998661172
124	121122	22.787400288036	0.09999866119
124	121679	22.887398949219	0.099998661183
124	122236	22.987397610379	0.09999866116
124	122801	23.087396271496	0.099998661117
124	123358	23.187394932559	0.099998661063
124	123915	23.287393593554	0.099998660995
124	124472	23.387392254472	0.099998660918
124	125029	23.487390915305	0.099998660833
124	125586	23.587402576046	0.100011660741
124	126143	23.687401236685	0.099998660639
124	126700	23.787399897219	0.099998660534
124	127257	23.887398557645	0.099998660426
124	127820	23.987397217953	0.099998660308
124	128385	24.087395878142	0.099998660189
124	128942	24.187394538207	0.099998660065
124	129499	24.287393198144	0.099998659937
124	130056	24.38739185795	0.099998659806
124	130613	24.487390517618	0.099998659668
124	131170	24.587402177149	0.100011659531
124	131727	24.68740083655	0.099998659401
124	132284	24.787399495827	0.099998659277
124	132841	24.887398154996	0.099998659169
124	133398	24.987396814077	0.099998659081
124	133963	25.08739547309	0.099998659013
124	134520	25.18739413206	0.09999865897
124	135077	25.287392791016	0.099998658956
124	135634	25.387391449977	0.099998658961
124	136191	25.487403108965	0.100011658988
124	136748	25.587401767998	0.099998659033
124	137305	25.687400427086	0.099998659088
124	137862	25.787399086242	0.099998659156
124	138419	25.887397745475	0.099998659233
124	138976	25.987396404796	0.099998659321
124	139541	26.087395064212	0.099998659416
124	140098	26.187393723729	0.099998659517
124	140655	26.287392383355	0.099998659626
124	141212	26.38739104309	0.099998659735
124	141769	26.487402702945	0.100011659855
124	142320	26.587401362922	0.099998659977
124	142877	26.687400023026	0.099998660104
124	143434	26.787398683259	0.099998660233
124	143991	26.887397343627	0.099998660368
124	144548	26.987396004134	0.099998660507
124	145113	27.08739466478	0.099998660646
124	145670	27.18739332556	0.09999866078
124	146227	27.287391986465	0.099998660905
124	146784	27.387390647482	0.099998661017
124	147341	27.48740230859	0.100011661108
124	147898	27.587400969768	0.099998661178
124	148455	27.687399630991	0.099998661223
124	149012	27.787398292231	0.09999866124
124	149569	27.887396953469	0.099998661238
124	150126	27.987395614683	0.099998661214
124	150691	28.087394275856	0.099998661173
124	151248	28.187392936976	0.09999866112
124	151805	28.28739159803	0.099998661054
124	152362	28.387403259008	0.100011660978
124	152919	28.487401919902	0.099998660894
124	153476	28.587400580705	0.099998660803
124	154033	28.68739924141	0.099998660705
124	154590	28.787397902012	0.099998660602
124	155147	28.887396562504	0.099998660492
124	155704	28.987395222883	0.099998660379
124	156275	29.08739388314	0.099998660257
124	156832	29.187392543275	0.099998660135
124	157389	29.287391203284	0.099998660009
124	157946	29.38740286316	0.100011659876
124	158503	29.487401522903	0.099998659743
124	159060	29.587400182511	0.099998659608
124	159617	29.687398841987	0.099998659476
124	160174	29.787397501339	0.099998659352
124	160731	29.887396160585	0.099998659246
124	161288	29.987394819743	0.099998659158
124	161853	30.087393478834	0.099998659091
124	162410	30.18739213789	0.099998659056
124	162967	30.287390796967	0.099998659077
124	163518	30.387402456138	0.100011659171
124	164075	30.487401115492	0.099998659354
124	164632	30.587399775133	0.099998659641
124	165189	30.687398435175	0.099998660042
124	165746	30.787397095736	0.099998660561
124	166303	30.887395756952	0.099998661216
124	166860	30.987394418956	0.099998662004
124	167425	31.08739308189	0.099998662934
124	167982	31.187391745902	0.099998664012
124	168539	31.287403411141	0.100011665239
124	169096	31.38740207776	0.099998666619
124	169653	31.487400745918	0.099998668158
124	170210	31.587399415774	0.099998669856
124	170767	31.68739808749	0.099998671716
124	171324	31.787396761229	0.099998673739
124	171881	31.887395437156	0.099998675927
124	172438	31.987394115441	0.099998678285
124	173003	32.08739279625	0.099998680809
124	173560	32.187391479743	0.099998683493
124	174117	32.287403166079	0.100011686336
124	174674	32.387401855414	0.099998689335
124	175231	32.487400547896	0.099998692482
124	175788	32.587399243675	0.099998695779
124	176345	32.687397942898	0.099998699223
124	176902	32.787396645707	0.099998702809
124	177459	32.887395352253	0.099998706546
124	178016	32.987394062688	0.099998710435
