file 870065 1512141459                                          
version 2
run SinusoidalSpeedInjectionAttack-20-20171201-16:17:22-1606
attr CACCSpacing 5
attr attackAcc -30
attr attackPos 7
attr attackSpeed -50
attr attackStart 30
attr attacker 3
attr beaconInterval 0.1
attr configname SinusoidalSpeedInjectionAttack
attr controller 1
attr datetime 20171201-16:17:22
attr experiment SinusoidalSpeedInjectionAttack
attr fakeAcc "(3 == 4)"
attr fakePos "(3 == 2)"
attr fakeSpeed "(3 == 3)"
attr inifile omnetpp_20.ini
attr iterationvars "$attacker=3, $attackSpeed=-50, $attackPos=7, $attackAcc=-30, $leaderSpeed=100, $controller=1, $CACCSpacing=5, $sController=\"CACC\", $attackStart=30, $0=5, $1=0, $nCars=8, $platoonSize=8, $nLanes=1, $beaconInterval=0.1, $priority=2, $packetSize=200, $ploegH=0.5, $leaderHeadway=1.2, $fakeSpeed=(3 == 3), $fakeAcc=(3 == 4), $fakePos=(3 == 2)"
attr iterationvarsf attacker=3,attackSpeed=-50,attackPos=7,attackAcc=-30,leaderSpeed=100,controller=1,CACCSpacing=5,sController=CACC,attackStart=30,5,0,nCars=8,platoonSize=8,nLanes=1,beaconInterval=0.1,priority=2,packetSize=200,ploegH=0.5,leaderHeadway=1.2,fakeSpeed=(3_==_3),fakeAcc=(3_==_4),fakePos=(3_==_2)-
attr leaderHeadway 1.2
attr leaderSpeed 100
attr measurement "$attacker=3, $attackSpeed=-50, $attackPos=7, $attackAcc=-30, $leaderSpeed=100, $controller=1, $CACCSpacing=5, $sController=\"CACC\", $attackStart=30, $0=5, $1=0, $nCars=8, $platoonSize=8, $nLanes=1, $beaconInterval=0.1, $priority=2, $packetSize=200, $ploegH=0.5, $leaderHeadway=1.2, $fakeSpeed=(3 == 3), $fakeAcc=(3 == 4), $fakePos=(3 == 2)"
attr nCars 8
attr nLanes 1
attr network scenario
attr packetSize 200
attr platoonSize 8
attr ploegH 0.5
attr priority 2
attr processid 1606
attr repetition 0
attr replication #0
attr resultdir results
attr runnumber 20
attr sController "\"CACC\""
attr seedset 0
param **.coreDebug false
param **.debug false
param **.headway 0.1s
param **.numberOfCars 8
param **.numberOfCarsPerPlatoon 8
param **.numberOfLanes 1
param **.numericController 1
param **.traffic.nCars 8
param **.traffic.nLanes 1
param **.traffic.platoonInsertDistance 5m
param **.traffic.platoonInsertHeadway 0s
param **.traffic.platoonInsertSpeed 100kmph
param **.traffic.platoonInsertTime "1 s"
param **.traffic.platoonLeaderHeadway 1.2s
param **.traffic.platoonSize 8
param **.traffic.platooningVType "\"vtypeauto\""
param **.traffic_type "\"PlatoonsTrafficManager\""
param *.**.nic.mac1609_4.bitrate 6Mbps
param *.**.nic.mac1609_4.txPower 100mW
param *.**.nic.mac1609_4.useServiceChannel false
param *.**.nic.phy80211p.analogueModels "xmldoc(\"config.xml\")"
param *.**.nic.phy80211p.decider "xmldoc(\"config.xml\")"
param *.**.nic.phy80211p.maxTXPower 100mW
param *.**.nic.phy80211p.sensitivity -94dBm
param *.**.nic.phy80211p.thermalNoise -95dBm
param *.**.nic.phy80211p.usePropagationDelay true
param *.**.nic.phy80211p.useThermalNoise true
param *.annotations.draw false
param *.connectionManager.alpha 2.0
param *.connectionManager.carrierFrequency "5.890e9 Hz"
param *.connectionManager.pMax 100mW
param *.connectionManager.sat -94dBm
param *.connectionManager.sendDirect true
param *.manager.autoShutdown true
param *.manager.commandLine "\"sumo --remote-port $port --seed $seed --configuration-file $configFile\""
param *.manager.configFile "\"./sumocfg/freeway.sumo.cfg\""
param *.manager.host "\"localhost\""
param *.manager.margin 25
param *.manager.moduleDisplayString "\"\""
param *.manager.moduleName "\"node\""
param *.manager.moduleType "\"Car\""
param *.manager.updateInterval 0.01s
param *.node[*].appl.attackStart 30s
param *.node[*].appl.attackerType 3
param *.node[*].appl.simulationDuration "60 s"
param *.node[*].appl_type "\"SimplePlatooningApp\""
param *.node[*].helper.nCars 8
param *.node[*].helper.nLanes 1
param *.node[*].helper.platoonSize 8
param *.node[*].helper_type "\"PositionHelper\""
param *.node[*].mobility.x 0
param *.node[*].mobility.y 0
param *.node[*].mobility.z 1.895
param *.node[*].prot.attackStart 30s
param *.node[*].prot.attackerType 3
param *.node[*].prot.attackingNode 3
param *.node[*].prot.beaconingInterval 0.1s
param *.node[*].prot.fakeAcc "(3 == 4)"
param *.node[*].prot.fakePos "(3 == 2)"
param *.node[*].prot.fakeSpeed "(3 == 3)"
param *.node[*].prot.maliciousAcc "-30 mpss"
param *.node[*].prot.maliciousSpeed -50kmph
param *.node[*].prot.packetSize 200
param *.node[*].prot.priority 2
param *.node[*].prot.shiftX "7 m"
param *.node[*].prot.useControllerAcceleration true
param *.node[*].protocol_type "\"SimplePlatooningBeaconing\""
param *.node[*].scenario.accHeadway 0.1s
param *.node[*].scenario.caccC1 0.5
param *.node[*].scenario.caccOmegaN "0.2 Hz"
param *.node[*].scenario.caccSpacing 5m
param *.node[*].scenario.caccXi 1
param *.node[*].scenario.controller "\"CACC\""
param *.node[*].scenario.engineTau "0.5 s"
param *.node[*].scenario.leaderHeadway 1.2s
param *.node[*].scenario.leaderSpeed 100kmph
param *.node[*].scenario.ploegH 0.5s
param *.node[*].scenario.ploegKd 0.7
param *.node[*].scenario.ploegKp 0.2
param *.node[*].scenario.useRealisticEngine false
param *.node[*].scenario_type "\"SinusoidalScenario\""
param *.node[*].unicast.packetLossRate 0
param *.obstacles.debug false
param *.playgroundSizeX 65000m
param *.playgroundSizeY 25000m
param *.playgroundSizeZ 50m
param *.world.use2D false
param *.world.useTorus false

vector 0  scenario.node[0].appl  distance  ETV
vector 1  scenario.node[0].appl  relativeSpeed  ETV
vector 2  scenario.node[0].appl  nodeId  ETV
vector 6  scenario.node[0].appl  acceleration  ETV
vector 7  scenario.node[0].appl  controllerAcceleration  ETV
vector 3  scenario.node[0].appl  speed  ETV
vector 4  scenario.node[0].appl  posx  ETV
vector 5  scenario.node[0].appl  posy  ETV
vector 22  scenario.node[1].appl  distance  ETV
vector 23  scenario.node[1].appl  relativeSpeed  ETV
vector 24  scenario.node[1].appl  nodeId  ETV
vector 28  scenario.node[1].appl  acceleration  ETV
vector 29  scenario.node[1].appl  controllerAcceleration  ETV
vector 25  scenario.node[1].appl  speed  ETV
vector 26  scenario.node[1].appl  posx  ETV
vector 27  scenario.node[1].appl  posy  ETV
vector 44  scenario.node[2].appl  distance  ETV
vector 45  scenario.node[2].appl  relativeSpeed  ETV
vector 46  scenario.node[2].appl  nodeId  ETV
vector 50  scenario.node[2].appl  acceleration  ETV
vector 51  scenario.node[2].appl  controllerAcceleration  ETV
vector 47  scenario.node[2].appl  speed  ETV
vector 48  scenario.node[2].appl  posx  ETV
vector 49  scenario.node[2].appl  posy  ETV
vector 66  scenario.node[3].appl  distance  ETV
vector 67  scenario.node[3].appl  relativeSpeed  ETV
vector 68  scenario.node[3].appl  nodeId  ETV
vector 72  scenario.node[3].appl  acceleration  ETV
vector 73  scenario.node[3].appl  controllerAcceleration  ETV
vector 69  scenario.node[3].appl  speed  ETV
vector 70  scenario.node[3].appl  posx  ETV
vector 71  scenario.node[3].appl  posy  ETV
vector 88  scenario.node[4].appl  distance  ETV
vector 89  scenario.node[4].appl  relativeSpeed  ETV
vector 90  scenario.node[4].appl  nodeId  ETV
vector 94  scenario.node[4].appl  acceleration  ETV
vector 95  scenario.node[4].appl  controllerAcceleration  ETV
vector 91  scenario.node[4].appl  speed  ETV
vector 92  scenario.node[4].appl  posx  ETV
vector 93  scenario.node[4].appl  posy  ETV
vector 110  scenario.node[5].appl  distance  ETV
vector 111  scenario.node[5].appl  relativeSpeed  ETV
vector 112  scenario.node[5].appl  nodeId  ETV
vector 116  scenario.node[5].appl  acceleration  ETV
vector 117  scenario.node[5].appl  controllerAcceleration  ETV
vector 113  scenario.node[5].appl  speed  ETV
vector 114  scenario.node[5].appl  posx  ETV
vector 115  scenario.node[5].appl  posy  ETV
vector 132  scenario.node[6].appl  distance  ETV
vector 133  scenario.node[6].appl  relativeSpeed  ETV
vector 134  scenario.node[6].appl  nodeId  ETV
vector 138  scenario.node[6].appl  acceleration  ETV
vector 139  scenario.node[6].appl  controllerAcceleration  ETV
vector 135  scenario.node[6].appl  speed  ETV
vector 136  scenario.node[6].appl  posx  ETV
vector 137  scenario.node[6].appl  posy  ETV
vector 154  scenario.node[7].appl  distance  ETV
vector 155  scenario.node[7].appl  relativeSpeed  ETV
vector 156  scenario.node[7].appl  nodeId  ETV
vector 160  scenario.node[7].appl  acceleration  ETV
vector 161  scenario.node[7].appl  controllerAcceleration  ETV
vector 157  scenario.node[7].appl  speed  ETV
vector 158  scenario.node[7].appl  posx  ETV
vector 159  scenario.node[7].appl  posy  ETV
vector 80  scenario.node[3].prot  frontDelay  ETV
vector 78  scenario.node[3].prot  frontDelayId  ETV
vector 58  scenario.node[2].prot  frontDelay  ETV
vector 56  scenario.node[2].prot  frontDelayId  ETV
vector 168  scenario.node[7].prot  frontDelay  ETV
vector 166  scenario.node[7].prot  frontDelayId  ETV
vector 35  scenario.node[1].prot  leaderDelay  ETV
vector 33  scenario.node[1].prot  leaderDelayId  ETV
vector 36  scenario.node[1].prot  frontDelay  ETV
vector 34  scenario.node[1].prot  frontDelayId  ETV
vector 57  scenario.node[2].prot  leaderDelay  ETV
vector 55  scenario.node[2].prot  leaderDelayId  ETV
vector 79  scenario.node[3].prot  leaderDelay  ETV
vector 77  scenario.node[3].prot  leaderDelayId  ETV
vector 101  scenario.node[4].prot  leaderDelay  ETV
vector 99  scenario.node[4].prot  leaderDelayId  ETV
vector 123  scenario.node[5].prot  leaderDelay  ETV
vector 121  scenario.node[5].prot  leaderDelayId  ETV
vector 145  scenario.node[6].prot  leaderDelay  ETV
vector 143  scenario.node[6].prot  leaderDelayId  ETV
vector 167  scenario.node[7].prot  leaderDelay  ETV
vector 165  scenario.node[7].prot  leaderDelayId  ETV
vector 124  scenario.node[5].prot  frontDelay  ETV
vector 122  scenario.node[5].prot  frontDelayId  ETV
vector 102  scenario.node[4].prot  frontDelay  ETV
vector 100  scenario.node[4].prot  frontDelayId  ETV
vector 146  scenario.node[6].prot  frontDelay  ETV
vector 144  scenario.node[6].prot  frontDelayId  ETV
vector 8  scenario.node[0].prot  nodeId  ETV
vector 9  scenario.node[0].prot  busyTime  ETV
vector 10  scenario.node[0].prot  collisions  ETV
vector 30  scenario.node[1].prot  nodeId  ETV
vector 31  scenario.node[1].prot  busyTime  ETV
vector 32  scenario.node[1].prot  collisions  ETV
vector 52  scenario.node[2].prot  nodeId  ETV
vector 53  scenario.node[2].prot  busyTime  ETV
vector 54  scenario.node[2].prot  collisions  ETV
vector 74  scenario.node[3].prot  nodeId  ETV
vector 75  scenario.node[3].prot  busyTime  ETV
vector 76  scenario.node[3].prot  collisions  ETV
vector 96  scenario.node[4].prot  nodeId  ETV
vector 97  scenario.node[4].prot  busyTime  ETV
vector 98  scenario.node[4].prot  collisions  ETV
vector 118  scenario.node[5].prot  nodeId  ETV
vector 119  scenario.node[5].prot  busyTime  ETV
vector 120  scenario.node[5].prot  collisions  ETV
vector 140  scenario.node[6].prot  nodeId  ETV
vector 141  scenario.node[6].prot  busyTime  ETV
vector 142  scenario.node[6].prot  collisions  ETV
vector 162  scenario.node[7].prot  nodeId  ETV
vector 163  scenario.node[7].prot  busyTime  ETV
vector 164  scenario.node[7].prot  collisions  ETV
7	11083 7288 232 170876 1.11 31.71 307 -1.5 1.5 12.322360323987 486.51089741013
6	18371 9630 232 170876 1.11 31.71 307 -1.4722746794938 1.4513241957726 4.2998695572294 325.22513591436
5	28001 6159 232 170876 1.11 31.71 307 36.55 36.55 11220.85 410122.0675
4	34160 9197 232 170876 1.11 31.71 307 99.217642974587 952.29406465071 161887.48021063 104144083.7456
3	43357 9195 232 170876 1.11 31.71 307 26.488037261118 29.742492528104 8558.6818719354 238828.12257257
1	52552 4931 232 170876 1.11 31.71 307 0 0 0 0
0	57483 5238 232 170876 1.11 31.71 307 -1 -1 -307 307
2	62721 4931 232 170876 1.11 31.71 307 0 0 0 0
10	67652 423 5102 166834 2 31 30 0 0 0 0
9	68075 574 5102 166834 2 31 30 0.022969 0.02625 0.784219 0.020510387461
8	68649 393 5102 166834 2 31 30 0 0 0 0
29	69042 9855 233 170877 1.11 31.71 307 -1.51297165279 1.51296484251 10.732286056029 487.36066166949
28	78897 9917 233 170877 1.11 31.71 307 -1.4840815553274 1.4595456977474 3.461721763539 326.13488976936
27	88814 6466 233 170877 1.11 31.71 307 36.55 36.55 11220.85 410122.0675
26	95280 9498 233 170877 1.11 31.71 307 90.217642974854 943.26948024261 159124.03363346 101255928.78421
25	104778 9504 233 170877 1.11 31.71 307 26.483797963405 29.74860430989 8558.406114895 238814.63995839
23	114282 10384 233 170877 1.11 31.71 307 -0.074693814310276 0.072861104416422 0.23275834483619 0.86040465244618
22	124666 9488 233 170877 1.11 31.71 307 4.9147225894276 5.1113154328265 1535.4410620357 7680.2468046111
24	134154 5238 233 170877 1.11 31.71 307 1 1 307 307
36	139392 12155 1032 170563 1.254911230853 31.654884046138 305 0.099907839697 0.100089841893 30.499984655867 3.0499974445607
35	151547 12155 1032 170563 1.254911230853 31.654884046138 305 0.099907839697 0.100089841893 30.499984655867 3.0499974445607
34	163702 8225 1032 170563 1.254911230853 31.654884046138 305 1 1 305 305
33	171927 8225 1032 170563 1.254911230853 31.654884046138 305 1 1 305 305
32	180152 423 5103 166835 2 31 30 0 0 0 0
31	180575 604 5103 166835 2 31 30 0.022969 0.02625 0.784219 0.020510387461
30	181179 423 5103 166835 2 31 30 1 1 30 30
51	181602 9856 234 170878 1.11 31.71 307 -1.4952754263723 1.4970992082337 9.9153829797328 473.66466984964
50	191458 9934 234 170878 1.11 31.71 307 -1.4761121300058 1.4494360548792 2.942571925529 322.18726382827
49	201392 6466 234 170878 1.11 31.71 307 36.55 36.55 11220.85 410122.0675
48	207858 9505 234 170878 1.11 31.71 307 81.217642974854 934.26629586264 156360.78306263 98417493.677131
47	217363 9498 234 170878 1.11 31.71 307 26.489607272832 29.743342827976 8558.356547531 238809.77007949
45	226861 10395 234 170878 1.11 31.71 307 -0.042592453278694 0.039108606634183 0.014950146306408 0.20258315937562
44	237256 9489 234 170878 1.11 31.71 307 4.9490553517333 5.073511309269 1535.2495794775 7677.7904532061
46	246745 5238 234 170878 1.11 31.71 307 2 2 614 1228
58	251983 12165 900 170425 1.229657900624 31.629656702541 305 0.099998839147 0.100011848072 30.499997642499 3.0499995326586
57	264148 12143 1038 170569 1.254911260874 31.65488407616 305 0.099907839705 0.100089841908 30.499984655868 3.0499974445609
56	276291 8224 900 170425 1.229657900624 31.629656702541 305 2 2 610 1220
55	284515 8210 1038 170569 1.254911260874 31.65488407616 305 2 2 610 1220
54	292725 423 5104 166836 2 31 30 0 0 0 0
53	293148 604 5104 166836 2 31 30 0.022969 0.02625 0.784219 0.020510387461
52	293752 423 5104 166836 2 31 30 2 2 60 120
73	294175 9844 235 170879 1.11 31.71 307 -1.4890877726353 1.4891492873218 9.4993730314368 460.63811980216
72	304019 9915 235 170879 1.11 31.71 307 -1.4634887750212 1.436258113484 2.6630514377626 316.02826386454
71	313934 6466 235 170879 1.11 31.71 307 36.55 36.55 11220.85 410122.0675
70	320400 9517 235 170879 1.11 31.71 307 72.217642974854 925.27279004974 153597.30507981 95628415.898067
69	329917 9503 235 170879 1.11 31.71 307 26.502581656561 29.730048242857 8558.4119338127 238809.09137698
67	339420 10501 235 170879 1.11 31.71 307 -0.022067714510641 0.020412765752095 -0.084812000940087 0.037404958935882
66	349921 9472 235 170879 1.11 31.71 307 4.970444718173 5.0493611528806 1535.4790905494 7679.9009219727
68	359393 5238 235 170879 1.11 31.71 307 3 3 921 2763
80	364631 12207 832 170914 1.213904870603 31.713902563427 306 0.099998839139 0.100011859457 30.599996533406 3.0599993108415
79	376838 12158 1044 170575 1.254911290894 31.654884106154 305 0.099907839706 0.100089841918 30.499984655842 3.0499974445557
78	388996 8244 832 170914 1.213904870603 31.713902563427 306 3 3 918 2754
77	397240 8212 1044 170575 1.254911290894 31.654884106154 305 3 3 915 2745
76	405452 423 5105 166837 2 31 30 0 0 0 0
75	405875 604 5105 166837 2 31 30 0.022968 0.02625 0.784218 0.020510341524
74	406479 423 5105 166837 2 31 30 3 3 90 270
95	406902 9857 236 170880 1.11 31.71 307 -11.153823298206 1.4817587934171 -157.64526909731 1663.1799600614
94	416759 9915 236 170880 1.11 31.71 307 -8.0633203368997 1.426191368445 -128.74058526563 1131.5070991641
93	426674 6466 236 170880 1.11 31.71 307 36.55 36.55 11220.85 410122.0675
92	433140 9507 236 170880 1.11 31.71 307 63.217642974853 906.74522346528 150781.25304652 92793909.180697
91	442647 9499 236 170880 1.11 31.71 307 15.193418051421 29.716886431342 8458.5930690255 234209.55935961
89	452146 10499 236 170880 1.11 31.71 307 -0.01353373731455 12.773015857445 99.792234272827 869.39270507008
88	462645 9490 236 170880 1.11 31.71 307 4.987206697905 14.271824527351 1586.0556559947 8480.9517178112
90	472135 5238 236 170880 1.11 31.71 307 4 4 1228 4912
102	477373 12478 1246 170784 1.303561561081 31.703560414605 305 0.099998839151 0.100011870142 30.499997694106 3.0499995429805
101	489851 12476 1050 170581 1.254911320915 31.654884165424 305 0.099907839704 0.100089841921 30.499984685091 3.0499974504056
100	502327 8532 1246 170784 1.303561561081 31.703560414605 305 4 4 1220 4880
99	510859 8232 1050 170581 1.254911320915 31.654884165424 305 4 4 1220 4880
98	519091 423 5106 166838 2 31 30 0 0 0 0
97	519514 604 5106 166838 2 31 30 0.022969 0.02625 0.784219 0.020510387461
96	520118 423 5106 166838 2 31 30 4 4 120 480
139	520541 10168 238 170882 1.11 31.71 307 -1.7198347535517 1.4812783402948 -39.111302631336 459.56280812112
138	530709 10224 238 170882 1.11 31.71 307 -1.5660139514633 1.4264948356413 -32.85165563374 321.43192978287
137	540933 6773 238 170882 1.11 31.71 307 36.55 36.55 11220.85 410122.0675
136	547706 9816 238 170882 1.11 31.71 307 45.217641067505 896.02877733154 145294.49710964 87536143.794717
135	557522 9829 238 170882 1.11 31.71 307 24.556648716931 29.713767019085 8534.7491685435 237561.2601274
133	567351 10690 238 170882 1.11 31.71 307 -3.1551827909744 0.022610052330897 -23.842621797705 51.691050027136
132	578041 9791 238 170882 1.11 31.71 307 2.7272244659436 5.0142921529305 1523.6584429107 7579.0795010115
134	587832 5545 238 170882 1.11 31.71 307 6 6 1842 11052
146	593377 12463 1312 170844 1.305157621123 31.705156450663 305 0.09999883915 0.100011844418 30.499997670122 3.0499995381831
145	605840 12463 1062 170593 1.254911380957 31.654884203026 305 0.099907839699 0.100089841913 30.499984662651 3.0499974459176
144	618303 8528 1312 170844 1.305157621123 31.705156450663 305 6 6 1830 10980
143	626831 8528 1062 170593 1.254911380957 31.654884203026 305 6 6 1830 10980
142	635359 453 5108 166840 2 31 30 0 0 0 0
141	635812 634 5108 166840 2 31 30 0.022969 0.02625 0.784219 0.020510387461
140	636446 453 5108 166840 2 31 30 6 6 180 1080
161	636899 10199 239 170883 1.11 31.71 307 -1.4938774161461 1.493808852043 -17.223887986312 434.39854176639
160	647098 10249 239 170883 1.11 31.71 307 -1.4564665686184 1.4312228051025 -15.705515962083 296.90689925866
159	657347 6773 239 170883 1.11 31.71 307 36.55 36.55 11220.85 410122.0675
158	664120 9801 239 170883 1.11 31.71 307 36.217641067505 888.19524745015 142536.97020567 84956088.988125
157	673921 9808 239 170883 1.11 31.71 307 26.221074567519 29.719191219808 8547.0065891666 238194.46507282
155	683729 10877 239 170883 1.11 31.71 307 -1.6487657110736 0.011006388652753 -11.928904066781 13.161488330022
154	694606 9802 239 170883 1.11 31.71 307 3.8668183984024 5.0256963357932 1529.7720523789 7627.0354789668
156	704408 5545 239 170883 1.11 31.71 307 7 7 2149 15043
168	709953 12457 975 170506 1.254433050728 31.654431855539 305 0.099998839143 0.100011851494 30.499997645393 3.0499995332375
167	722410 12463 1068 170599 1.254911410977 31.654884229484 305 0.099907839704 0.10008984192 30.499984659089 3.0499974452052
166	734873 8533 975 170506 1.254433050728 31.654431855539 305 7 7 2135 14945
165	743406 8527 1068 170599 1.254911410977 31.654884229484 305 7 7 2135 14945
164	751933 453 5109 166841 2 31 30 0 0 0 0
163	752386 634 5109 166841 2 31 30 0.022969 0.02625 0.784219 0.020510387461
162	753020 453 5109 166841 2 31 30 7 7 210 1470
110	753473 9831 237 170952 1.11 31.72 308 0 5.0346850959602 1508.6206159628 7495.0145372318
111	763304 10706 237 170952 1.11 31.72 308 -6.1666265951278 0.039951792544471 -56.534403891392 253.66701512899
112	774010 5564 237 170952 1.11 31.72 308 5 5 1540 7700
113	779574 9834 237 170952 1.11 31.72 308 21.327789342709 29.708613948087 8531.5760415171 236831.93540221
114	789408 9846 237 170952 1.11 31.72 308 54.217641067505 902.90507061587 148948.57060483 90969711.054089
115	799254 6796 237 170952 1.11 31.72 308 36.55 36.55 11257.4 411457.97
116	806050 10274 237 170952 1.11 31.72 308 -3.8125664615102 1.4230601844609 -69.505038060348 487.27463573125
117	816324 10215 237 170952 1.11 31.72 308 -4.9636052206331 1.4914667280331 -88.438344408834 733.08705630981
118	826539 453 5107 166839 2 31 30 5 5 150 750
119	826992 634 5107 166839 2 31 30 0.022968 0.02625 0.784218 0.020510341524
120	827626 453 5107 166839 2 31 30 0 0 0 0
121	828079 8525 1056 170587 1.254911350936 31.654884180167 305 5 5 1525 7625
122	836604 8537 1172 170697 1.26574753106 31.665746308087 305 5 5 1525 7625
123	845141 12458 1056 170587 1.254911350936 31.654884180167 305 0.099907839698 0.100089841915 30.499984669813 3.04999744735
124	857599 12466 1172 170697 1.26574753106 31.665746308087 305 0.099998838957 0.100011842825 30.499997617609 3.0499995276805
