file 961789 1512142237                                          
version 2
run SinusoidalSpeedInjectionAttack-167-20171201-16:30:12-46000
attr CACCSpacing 20
attr attackAcc -30
attr attackPos 7
attr attackSpeed 50
attr attackStart 30
attr attacker 3
attr beaconInterval 0.1
attr configname SinusoidalSpeedInjectionAttack
attr controller 1
attr datetime 20171201-16:30:12
attr experiment SinusoidalSpeedInjectionAttack
attr fakeAcc "(3 == 4)"
attr fakePos "(3 == 2)"
attr fakeSpeed "(3 == 3)"
attr inifile omnetpp_167.ini
attr iterationvars "$attacker=3, $attackSpeed=50, $attackPos=7, $attackAcc=-30, $leaderSpeed=150, $controller=1, $CACCSpacing=20, $sController=\"CACC\", $attackStart=30, $0=20, $1=0, $nCars=8, $platoonSize=8, $nLanes=1, $beaconInterval=0.1, $priority=2, $packetSize=200, $ploegH=0.5, $leaderHeadway=1.2, $fakeSpeed=(3 == 3), $fakeAcc=(3 == 4), $fakePos=(3 == 2)"
attr iterationvarsf attacker=3,attackSpeed=50,attackPos=7,attackAcc=-30,leaderSpeed=150,controller=1,CACCSpacing=20,sController=CACC,attackStart=30,20,0,nCars=8,platoonSize=8,nLanes=1,beaconInterval=0.1,priority=2,packetSize=200,ploegH=0.5,leaderHeadway=1.2,fakeSpeed=(3_==_3),fakeAcc=(3_==_4),fakePos=(3_==_2)-
attr leaderHeadway 1.2
attr leaderSpeed 150
attr measurement "$attacker=3, $attackSpeed=50, $attackPos=7, $attackAcc=-30, $leaderSpeed=150, $controller=1, $CACCSpacing=20, $sController=\"CACC\", $attackStart=30, $0=20, $1=0, $nCars=8, $platoonSize=8, $nLanes=1, $beaconInterval=0.1, $priority=2, $packetSize=200, $ploegH=0.5, $leaderHeadway=1.2, $fakeSpeed=(3 == 3), $fakeAcc=(3 == 4), $fakePos=(3 == 2)"
attr nCars 8
attr nLanes 1
attr network scenario
attr packetSize 200
attr platoonSize 8
attr ploegH 0.5
attr priority 2
attr processid 46000
attr repetition 2
attr replication #2
attr resultdir results
attr runnumber 167
attr sController "\"CACC\""
attr seedset 2
param **.coreDebug false
param **.debug false
param **.headway 0.1s
param **.numberOfCars 8
param **.numberOfCarsPerPlatoon 8
param **.numberOfLanes 1
param **.numericController 1
param **.traffic.nCars 8
param **.traffic.nLanes 1
param **.traffic.platoonInsertDistance 20m
param **.traffic.platoonInsertHeadway 0s
param **.traffic.platoonInsertSpeed 150kmph
param **.traffic.platoonInsertTime "1 s"
param **.traffic.platoonLeaderHeadway 1.2s
param **.traffic.platoonSize 8
param **.traffic.platooningVType "\"vtypeauto\""
param **.traffic_type "\"PlatoonsTrafficManager\""
param *.**.nic.mac1609_4.bitrate 6Mbps
param *.**.nic.mac1609_4.txPower 100mW
param *.**.nic.mac1609_4.useServiceChannel false
param *.**.nic.phy80211p.analogueModels "xmldoc(\"config.xml\")"
param *.**.nic.phy80211p.decider "xmldoc(\"config.xml\")"
param *.**.nic.phy80211p.maxTXPower 100mW
param *.**.nic.phy80211p.sensitivity -94dBm
param *.**.nic.phy80211p.thermalNoise -95dBm
param *.**.nic.phy80211p.usePropagationDelay true
param *.**.nic.phy80211p.useThermalNoise true
param *.annotations.draw false
param *.connectionManager.alpha 2.0
param *.connectionManager.carrierFrequency "5.890e9 Hz"
param *.connectionManager.pMax 100mW
param *.connectionManager.sat -94dBm
param *.connectionManager.sendDirect true
param *.manager.autoShutdown true
param *.manager.commandLine "\"sumo --remote-port $port --seed $seed --configuration-file $configFile\""
param *.manager.configFile "\"./sumocfg/freeway.sumo.cfg\""
param *.manager.host "\"localhost\""
param *.manager.margin 25
param *.manager.moduleDisplayString "\"\""
param *.manager.moduleName "\"node\""
param *.manager.moduleType "\"Car\""
param *.manager.updateInterval 0.01s
param *.node[*].appl.attackStart 30s
param *.node[*].appl.attackerType 3
param *.node[*].appl.simulationDuration "60 s"
param *.node[*].appl_type "\"SimplePlatooningApp\""
param *.node[*].helper.nCars 8
param *.node[*].helper.nLanes 1
param *.node[*].helper.platoonSize 8
param *.node[*].helper_type "\"PositionHelper\""
param *.node[*].mobility.x 0
param *.node[*].mobility.y 0
param *.node[*].mobility.z 1.895
param *.node[*].prot.attackStart 30s
param *.node[*].prot.attackerType 3
param *.node[*].prot.attackingNode 3
param *.node[*].prot.beaconingInterval 0.1s
param *.node[*].prot.fakeAcc "(3 == 4)"
param *.node[*].prot.fakePos "(3 == 2)"
param *.node[*].prot.fakeSpeed "(3 == 3)"
param *.node[*].prot.maliciousAcc "-30 mpss"
param *.node[*].prot.maliciousSpeed 50kmph
param *.node[*].prot.packetSize 200
param *.node[*].prot.priority 2
param *.node[*].prot.shiftX "7 m"
param *.node[*].prot.useControllerAcceleration true
param *.node[*].protocol_type "\"SimplePlatooningBeaconing\""
param *.node[*].scenario.accHeadway 0.1s
param *.node[*].scenario.caccC1 0.5
param *.node[*].scenario.caccOmegaN "0.2 Hz"
param *.node[*].scenario.caccSpacing 20m
param *.node[*].scenario.caccXi 1
param *.node[*].scenario.controller "\"CACC\""
param *.node[*].scenario.engineTau "0.5 s"
param *.node[*].scenario.leaderHeadway 1.2s
param *.node[*].scenario.leaderSpeed 150kmph
param *.node[*].scenario.ploegH 0.5s
param *.node[*].scenario.ploegKd 0.7
param *.node[*].scenario.ploegKp 0.2
param *.node[*].scenario.useRealisticEngine false
param *.node[*].scenario_type "\"SinusoidalScenario\""
param *.node[*].unicast.packetLossRate 0
param *.obstacles.debug false
param *.playgroundSizeX 65000m
param *.playgroundSizeY 25000m
param *.playgroundSizeZ 50m
param *.world.use2D false
param *.world.useTorus false

vector 0  scenario.node[0].appl  distance  ETV
vector 1  scenario.node[0].appl  relativeSpeed  ETV
vector 2  scenario.node[0].appl  nodeId  ETV
vector 6  scenario.node[0].appl  acceleration  ETV
vector 7  scenario.node[0].appl  controllerAcceleration  ETV
vector 3  scenario.node[0].appl  speed  ETV
vector 4  scenario.node[0].appl  posx  ETV
vector 5  scenario.node[0].appl  posy  ETV
vector 22  scenario.node[1].appl  distance  ETV
vector 23  scenario.node[1].appl  relativeSpeed  ETV
vector 24  scenario.node[1].appl  nodeId  ETV
vector 28  scenario.node[1].appl  acceleration  ETV
vector 29  scenario.node[1].appl  controllerAcceleration  ETV
vector 25  scenario.node[1].appl  speed  ETV
vector 26  scenario.node[1].appl  posx  ETV
vector 27  scenario.node[1].appl  posy  ETV
vector 44  scenario.node[2].appl  distance  ETV
vector 45  scenario.node[2].appl  relativeSpeed  ETV
vector 46  scenario.node[2].appl  nodeId  ETV
vector 50  scenario.node[2].appl  acceleration  ETV
vector 51  scenario.node[2].appl  controllerAcceleration  ETV
vector 47  scenario.node[2].appl  speed  ETV
vector 48  scenario.node[2].appl  posx  ETV
vector 49  scenario.node[2].appl  posy  ETV
vector 66  scenario.node[3].appl  distance  ETV
vector 67  scenario.node[3].appl  relativeSpeed  ETV
vector 68  scenario.node[3].appl  nodeId  ETV
vector 72  scenario.node[3].appl  acceleration  ETV
vector 73  scenario.node[3].appl  controllerAcceleration  ETV
vector 69  scenario.node[3].appl  speed  ETV
vector 70  scenario.node[3].appl  posx  ETV
vector 71  scenario.node[3].appl  posy  ETV
vector 88  scenario.node[4].appl  distance  ETV
vector 89  scenario.node[4].appl  relativeSpeed  ETV
vector 90  scenario.node[4].appl  nodeId  ETV
vector 94  scenario.node[4].appl  acceleration  ETV
vector 95  scenario.node[4].appl  controllerAcceleration  ETV
vector 91  scenario.node[4].appl  speed  ETV
vector 92  scenario.node[4].appl  posx  ETV
vector 93  scenario.node[4].appl  posy  ETV
vector 110  scenario.node[5].appl  distance  ETV
vector 111  scenario.node[5].appl  relativeSpeed  ETV
vector 112  scenario.node[5].appl  nodeId  ETV
vector 116  scenario.node[5].appl  acceleration  ETV
vector 117  scenario.node[5].appl  controllerAcceleration  ETV
vector 113  scenario.node[5].appl  speed  ETV
vector 114  scenario.node[5].appl  posx  ETV
vector 115  scenario.node[5].appl  posy  ETV
vector 132  scenario.node[6].appl  distance  ETV
vector 133  scenario.node[6].appl  relativeSpeed  ETV
vector 134  scenario.node[6].appl  nodeId  ETV
vector 138  scenario.node[6].appl  acceleration  ETV
vector 139  scenario.node[6].appl  controllerAcceleration  ETV
vector 135  scenario.node[6].appl  speed  ETV
vector 136  scenario.node[6].appl  posx  ETV
vector 137  scenario.node[6].appl  posy  ETV
vector 154  scenario.node[7].appl  distance  ETV
vector 155  scenario.node[7].appl  relativeSpeed  ETV
vector 156  scenario.node[7].appl  nodeId  ETV
vector 160  scenario.node[7].appl  acceleration  ETV
vector 161  scenario.node[7].appl  controllerAcceleration  ETV
vector 157  scenario.node[7].appl  speed  ETV
vector 158  scenario.node[7].appl  posx  ETV
vector 159  scenario.node[7].appl  posy  ETV
vector 168  scenario.node[7].prot  frontDelay  ETV
vector 166  scenario.node[7].prot  frontDelayId  ETV
vector 146  scenario.node[6].prot  frontDelay  ETV
vector 144  scenario.node[6].prot  frontDelayId  ETV
vector 35  scenario.node[1].prot  leaderDelay  ETV
vector 33  scenario.node[1].prot  leaderDelayId  ETV
vector 36  scenario.node[1].prot  frontDelay  ETV
vector 34  scenario.node[1].prot  frontDelayId  ETV
vector 57  scenario.node[2].prot  leaderDelay  ETV
vector 55  scenario.node[2].prot  leaderDelayId  ETV
vector 79  scenario.node[3].prot  leaderDelay  ETV
vector 77  scenario.node[3].prot  leaderDelayId  ETV
vector 101  scenario.node[4].prot  leaderDelay  ETV
vector 99  scenario.node[4].prot  leaderDelayId  ETV
vector 123  scenario.node[5].prot  leaderDelay  ETV
vector 121  scenario.node[5].prot  leaderDelayId  ETV
vector 145  scenario.node[6].prot  leaderDelay  ETV
vector 143  scenario.node[6].prot  leaderDelayId  ETV
vector 167  scenario.node[7].prot  leaderDelay  ETV
vector 165  scenario.node[7].prot  leaderDelayId  ETV
vector 102  scenario.node[4].prot  frontDelay  ETV
vector 100  scenario.node[4].prot  frontDelayId  ETV
vector 80  scenario.node[3].prot  frontDelay  ETV
vector 78  scenario.node[3].prot  frontDelayId  ETV
vector 124  scenario.node[5].prot  frontDelay  ETV
vector 122  scenario.node[5].prot  frontDelayId  ETV
vector 58  scenario.node[2].prot  frontDelay  ETV
vector 56  scenario.node[2].prot  frontDelayId  ETV
vector 8  scenario.node[0].prot  nodeId  ETV
vector 9  scenario.node[0].prot  busyTime  ETV
vector 10  scenario.node[0].prot  collisions  ETV
vector 30  scenario.node[1].prot  nodeId  ETV
vector 31  scenario.node[1].prot  busyTime  ETV
vector 32  scenario.node[1].prot  collisions  ETV
vector 52  scenario.node[2].prot  nodeId  ETV
vector 53  scenario.node[2].prot  busyTime  ETV
vector 54  scenario.node[2].prot  collisions  ETV
vector 74  scenario.node[3].prot  nodeId  ETV
vector 75  scenario.node[3].prot  busyTime  ETV
vector 76  scenario.node[3].prot  collisions  ETV
vector 96  scenario.node[4].prot  nodeId  ETV
vector 97  scenario.node[4].prot  busyTime  ETV
vector 98  scenario.node[4].prot  collisions  ETV
vector 118  scenario.node[5].prot  nodeId  ETV
vector 119  scenario.node[5].prot  busyTime  ETV
vector 120  scenario.node[5].prot  collisions  ETV
vector 140  scenario.node[6].prot  nodeId  ETV
vector 141  scenario.node[6].prot  busyTime  ETV
vector 142  scenario.node[6].prot  collisions  ETV
vector 162  scenario.node[7].prot  nodeId  ETV
vector 163  scenario.node[7].prot  busyTime  ETV
vector 164  scenario.node[7].prot  collisions  ETV
7	11092 8095 232 188724 1.11 34.91 339 -1.5 1.5 -14.445913501543 537.75117764355
6	19187 10648 232 188724 1.11 34.91 339 -1.4722746794739 1.4513407705138 -12.507160782608 366.31782066154
5	29835 6831 232 188724 1.11 34.91 339 36.55 36.55 12390.45 452870.9475
4	36666 10182 232 188724 1.11 34.91 339 207.05996208151 1619.7094021732 309997.28130865 340148909.03558
3	46848 10170 232 188724 1.11 34.91 339 40.376926150007 43.631381416411 14167.727448282 592356.1421327
1	57018 5475 232 188724 1.11 34.91 339 0 0 0 0
0	62493 5814 232 188724 1.11 34.91 339 -1 -1 -339 339
2	68307 5475 232 188724 1.11 34.91 339 0 0 0 0
10	73782 468 5168 183634 2 34 33 0 0 0 0
9	74250 634 5168 183634 2 34 33 0.023297 0.02625 0.863297 0.022592750209
8	74884 435 5168 183634 2 34 33 0 0 0 0
29	75319 9997 233 188725 1.11 34.91 339 -1.5201885308666 1.5215379204632 -16.098577961759 539.10779440157
28	85316 10971 233 188725 1.11 34.91 339 -1.4845166983122 1.4492363480585 -12.15227783696 366.7081149474
27	96287 7170 233 188725 1.11 34.91 339 36.55 36.55 12390.45 452870.9475
26	103457 10517 233 188725 1.11 34.91 339 183.05996208191 1595.6665856067 301838.67719607 325414209.4113
25	113974 10526 233 188725 1.11 34.91 339 40.371478735482 43.62712233618 14167.314024697 592321.27799443
23	124500 11488 233 188725 1.11 34.91 339 -0.083288756717003 0.092346611381046 0.53849519286077 1.3099875333379
22	135988 10517 233 188725 1.11 34.91 339 19.942679106234 20.212890320125 6802.5958441056 136506.92764623
24	146505 5814 233 188725 1.11 34.91 339 1 1 339 339
36	152319 13500 1034 188970 1.262218481716 34.962209986428 338 0.099987125234 0.100012886204 33.79999126593 3.3799982543494
35	165819 13500 1034 188970 1.262218481716 34.962209986428 338 0.099987125234 0.100012886204 33.79999126593 3.3799982543494
34	179319 9136 1034 188970 1.262218481716 34.962209986428 338 1 1 338 338
33	188455 9136 1034 188970 1.262218481716 34.962209986428 338 1 1 338 338
32	197591 468 5169 183635 2 34 33 0 0 0 0
31	198059 667 5169 183635 2 34 33 0.023296 0.02625 0.863296 0.022592703616
30	198726 468 5169 183635 2 34 33 1 1 33 33
51	199194 10887 234 188726 1.11 34.91 339 -1.4917898285855 1.4990053112133 -15.41143556168 520.55988394817
50	210081 10951 234 188726 1.11 34.91 339 -1.4755502044913 1.4415473076198 -11.946115002702 363.87382136159
49	221032 7170 234 188726 1.11 34.91 339 36.55 36.55 12390.45 452870.9475
48	228202 10529 234 188726 1.11 34.91 339 159.05996208191 1571.6537549743 293697.32626113 311109944.73691
47	238731 10527 234 188726 1.11 34.91 339 40.374899765154 43.621861122539 14167.19188982 592308.7633839
45	249258 11606 234 188726 1.11 34.91 339 -0.01777464488606 0.016578161066576 0.24365765540006 0.032108204838286
44	260864 10502 234 188726 1.11 34.91 339 19.984493222034 20.053060378349 6785.3484922389 135814.13414301
46	271366 5814 234 188726 1.11 34.91 339 2 2 678 1356
58	277180 13479 1312 188686 1.302598202214 34.902602873092 337 0.099999759924 0.100012763807 33.700004432096 3.3700008874138
57	290659 13506 1040 188976 1.262218561772 34.962210066523 338 0.099987125224 0.100012886207 33.799991265969 3.3799982543572
56	304165 9121 1312 188686 1.302598202214 34.902602873092 337 2 2 674 1348
55	313286 9142 1040 188976 1.262218561772 34.962210066523 338 2 2 676 1352
54	322428 468 5170 183636 2 34 33 0 0 0 0
53	322896 667 5170 183636 2 34 33 0.023297 0.02625 0.863297 0.022592750209
52	323563 468 5170 183636 2 34 33 2 2 66 132
73	324031 10828 235 188727 1.11 34.91 339 -1.5133685813507 1.5079615905469 -15.711314227118 533.47907434199
72	334859 10971 235 188727 1.11 34.91 339 -1.4653396919059 1.4363794006925 -11.793083248989 359.02619410239
71	345830 7170 235 188727 1.11 34.91 339 36.55 36.55 12390.45 452870.9475
70	353000 10513 235 188727 1.11 34.91 339 135.0599697113 1547.6866676583 285564.0963505 297215293.30213
69	363513 10524 235 188727 1.11 34.91 339 40.383586413493 43.612915647186 14167.526874358 592333.65113587
67	374037 11703 235 188727 1.11 34.91 339 -0.015548640498203 0.01123016172378 -0.2155233881393 0.013094305055767
66	385740 10516 235 188727 1.11 34.91 339 19.962130290872 20.035282119877 6777.2366103251 135489.58328129
68	396256 5814 235 188727 1.11 34.91 339 3 3 1017 3051
80	402070 13513 1176 189106 1.287874801937 34.98787930635 338 0.099999759933 0.100012763801 33.800004265631 3.3800008541208
79	415583 13498 1046 188982 1.262218641827 34.962210146466 338 0.099987125217 0.100012886209 33.799991265857 3.3799982543348
78	429081 9143 1176 189106 1.287874801937 34.98787930635 338 3 3 1014 3042
77	438224 9136 1046 188982 1.262218641827 34.962210146466 338 3 3 1014 3042
76	447360 468 5171 183637 2 34 33 0 0 0 0
75	447828 667 5171 183637 2 34 33 0.023297 0.02625 0.863297 0.022592750209
74	448495 468 5171 183637 2 34 33 3 3 99 297
95	448963 10944 236 188728 1.11 34.91 339 -6.8202247429278 1.5 -184.94243885252 1183.501423715
94	459907 10991 236 188728 1.11 34.91 339 -4.8740566870443 1.4289148565439 -179.71145002667 923.49780607052
93	470898 7170 236 188728 1.11 34.91 339 36.55 36.55 12390.45 452870.9475
92	478068 10506 236 188728 1.11 34.91 339 111.0599697113 1473.0176644097 276548.64703275 281137358.16506
91	488574 10531 236 188728 1.11 34.91 339 23.732880128746 43.602711284548 13654.961165452 556304.08701338
89	499105 11544 236 188728 1.11 34.91 339 -0.013442532892654 16.802832501977 512.68363973918 6947.2513152702
88	510649 10503 236 188728 1.11 34.91 339 19.979107514516 70.33316764612 7649.1980035758 198346.31832672
90	521152 5814 236 188728 1.11 34.91 339 4 4 1356 5424
102	526966 13834 1108 189056 1.276580721882 34.976585398895 338 0.099999759934 0.100012763824 33.800004438231 3.3800008886408
101	540800 13851 1052 188988 1.262218721883 34.962210398335 338 0.099987130806 0.10001289052 33.79999143767 3.3799982886974
100	554651 9471 1108 189056 1.276580721882 34.976585398895 338 4 4 1352 5408
99	564122 9145 1052 188988 1.262218721883 34.962210398335 338 4 4 1352 5408
98	573267 468 5172 183638 2 34 33 0 0 0 0
97	573735 667 5172 183638 2 34 33 0.023297 0.02625 0.863297 0.022592750209
96	574402 468 5172 183638 2 34 33 4 4 132 528
139	574870 11292 238 188730 1.11 34.91 339 -3.475432326066 1.4959038764569 -104.52949857671 677.55646079411
138	586162 11352 238 188730 1.11 34.91 339 -3.1449195808911 1.4350229191201 -93.903747920539 500.06480307519
137	597514 7509 238 188730 1.11 34.91 339 36.55 36.55 12390.45 452870.9475
136	605023 10856 238 188730 1.11 34.91 339 63.059965896606 1457.1982470144 260876.59996862 257054984.02315
135	615879 10869 238 188730 1.11 34.91 339 32.380730782331 43.608495004992 13979.779985095 577677.51326286
133	626748 11933 238 188730 1.11 34.91 339 -3.9342877650684 0.010619115017491 -125.36093512829 409.14362771487
132	638681 10846 238 188730 1.11 34.91 339 7.5434420336614 20.027592333717 6559.3985215051 128541.74969052
134	649527 6153 238 188730 1.11 34.91 339 6 6 2034 12204
146	655680 13852 970 188906 1.247596081439 34.947600439069 338 0.09999975992 0.100012762725 33.800004118848 3.3800008247641
145	669532 13859 1064 189000 1.262218881993 34.962210449671 338 0.099987127793 0.100012887622 33.799991328896 3.3799982669426
144	683391 9489 970 188906 1.247596081439 34.947600439069 338 6 6 2028 12168
143	692880 9491 1064 189000 1.262218881993 34.962210449671 338 6 6 2028 12168
142	702371 501 5174 183640 2 34 33 0 0 0 0
141	702872 700 5174 183640 2 34 33 0.023297 0.02625 0.863297 0.022592750209
140	703572 501 5174 183640 2 34 33 6 6 198 1188
161	704073 11268 239 188731 1.11 34.91 339 -2.8921067594975 1.4866431696976 -74.701734687336 603.99564331993
160	715341 11329 239 188731 1.11 34.91 339 -2.7863810640866 1.4298755962791 -65.425906644064 437.26159213598
159	726670 7509 239 188731 1.11 34.91 339 36.55 36.55 12390.45 452870.9475
158	734179 10865 239 188731 1.11 34.91 339 39.059966850281 1440.9226488796 252869.17507557 245087178.75864
157	745044 10863 239 188731 1.11 34.91 339 35.218262252524 43.603378758373 14058.018260996 583559.21816339
155	755907 11960 239 188731 1.11 34.91 339 -2.8144981593437 0.008629600766966 -77.299238421982 164.97034646011
154	767867 10848 239 188731 1.11 34.91 339 12.332348764132 20.013502936188 6652.9896585643 131128.86194388
156	778715 6153 239 188731 1.11 34.91 339 7 7 2373 16611
168	784868 13847 832 188774 1.212137841273 34.912129308893 338 0.099999759918 0.100012762793 33.799991228838 3.3799982465994
167	798715 13830 1070 189006 1.262218962049 34.962210503487 338 0.099987126861 0.100012886991 33.799991302656 3.3799982616946
166	812545 9492 832 188774 1.212137841273 34.912129308893 338 7 7 2366 16562
165	822037 9476 1070 189006 1.262218962049 34.962210503487 338 7 7 2366 16562
164	831513 501 5175 183641 2 34 33 0 0 0 0
163	832014 700 5175 183641 2 34 33 0.023297 0.02625 0.863297 0.022592750209
162	832714 501 5175 183641 2 34 33 7 7 231 1617
110	833215 10883 237 189144 1.11 34.99 340 0 20.019410339195 6407.144919012 125531.86351568
111	844098 11810 237 189144 1.11 34.99 340 -5.7171938847316 0.032214803115416 -201.016771319 981.71426410036
112	855908 6172 237 189144 1.11 34.99 340 5 5 1700 8500
113	862080 10905 237 189144 1.11 34.99 340 28.376370842558 43.604574204146 13881.472731939 569576.90031409
114	872985 10907 237 189144 1.11 34.99 340 87.059965896606 1470.9381435248 270260.40296117 271294865.74784
115	883892 7532 237 189144 1.11 34.99 340 36.55 36.55 12427 454206.85
116	891424 11361 237 189144 1.11 34.99 340 -3.546711784621 1.4321005839285 -133.94446679787 622.9828827334
117	902785 10717 237 189144 1.11 34.99 340 -4.1057575613166 1.5066950663064 -143.75390513819 816.15132220695
118	913502 501 5173 183639 2 34 33 5 5 165 825
119	914003 700 5173 183639 2 34 33 0.023297 0.02625 0.863297 0.022592750209
120	914703 501 5173 183639 2 34 33 0 0 0 0
121	915204 9479 1058 188994 1.262218801938 34.962210412065 338 5 5 1690 8450
122	924683 9458 1244 188617 1.297504962048 34.897509399838 337 5 5 1685 8425
123	934141 13840 1058 188994 1.262218801938 34.962210412065 338 0.099987129105 0.100012888708 33.799991371345 3.3799982754324
124	947981 13808 1244 188617 1.297504962048 34.897509399838 337 0.099999759931 0.100012763424 33.700004199008 3.3700008407961
