file 880925 1512141794                                          
version 2
run SinusoidalSpeedInjectionAttack-83-20171201-16:22:57-55852
attr CACCSpacing 5
attr attackAcc -30
attr attackPos 7
attr attackSpeed 0
attr attackStart 30
attr attacker 3
attr beaconInterval 0.1
attr configname SinusoidalSpeedInjectionAttack
attr controller 1
attr datetime 20171201-16:22:57
attr experiment SinusoidalSpeedInjectionAttack
attr fakeAcc "(3 == 4)"
attr fakePos "(3 == 2)"
attr fakeSpeed "(3 == 3)"
attr inifile omnetpp_83.ini
attr iterationvars "$attacker=3, $attackSpeed=0, $attackPos=7, $attackAcc=-30, $leaderSpeed=100, $controller=1, $CACCSpacing=5, $sController=\"CACC\", $attackStart=30, $0=5, $1=0, $nCars=8, $platoonSize=8, $nLanes=1, $beaconInterval=0.1, $priority=2, $packetSize=200, $ploegH=0.5, $leaderHeadway=1.2, $fakeSpeed=(3 == 3), $fakeAcc=(3 == 4), $fakePos=(3 == 2)"
attr iterationvarsf attacker=3,attackSpeed=0,attackPos=7,attackAcc=-30,leaderSpeed=100,controller=1,CACCSpacing=5,sController=CACC,attackStart=30,5,0,nCars=8,platoonSize=8,nLanes=1,beaconInterval=0.1,priority=2,packetSize=200,ploegH=0.5,leaderHeadway=1.2,fakeSpeed=(3_==_3),fakeAcc=(3_==_4),fakePos=(3_==_2)-
attr leaderHeadway 1.2
attr leaderSpeed 100
attr measurement "$attacker=3, $attackSpeed=0, $attackPos=7, $attackAcc=-30, $leaderSpeed=100, $controller=1, $CACCSpacing=5, $sController=\"CACC\", $attackStart=30, $0=5, $1=0, $nCars=8, $platoonSize=8, $nLanes=1, $beaconInterval=0.1, $priority=2, $packetSize=200, $ploegH=0.5, $leaderHeadway=1.2, $fakeSpeed=(3 == 3), $fakeAcc=(3 == 4), $fakePos=(3 == 2)"
attr nCars 8
attr nLanes 1
attr network scenario
attr packetSize 200
attr platoonSize 8
attr ploegH 0.5
attr priority 2
attr processid 55852
attr repetition 3
attr replication #3
attr resultdir results
attr runnumber 83
attr sController "\"CACC\""
attr seedset 3
param **.coreDebug false
param **.debug false
param **.headway 0.1s
param **.numberOfCars 8
param **.numberOfCarsPerPlatoon 8
param **.numberOfLanes 1
param **.numericController 1
param **.traffic.nCars 8
param **.traffic.nLanes 1
param **.traffic.platoonInsertDistance 5m
param **.traffic.platoonInsertHeadway 0s
param **.traffic.platoonInsertSpeed 100kmph
param **.traffic.platoonInsertTime "1 s"
param **.traffic.platoonLeaderHeadway 1.2s
param **.traffic.platoonSize 8
param **.traffic.platooningVType "\"vtypeauto\""
param **.traffic_type "\"PlatoonsTrafficManager\""
param *.**.nic.mac1609_4.bitrate 6Mbps
param *.**.nic.mac1609_4.txPower 100mW
param *.**.nic.mac1609_4.useServiceChannel false
param *.**.nic.phy80211p.analogueModels "xmldoc(\"config.xml\")"
param *.**.nic.phy80211p.decider "xmldoc(\"config.xml\")"
param *.**.nic.phy80211p.maxTXPower 100mW
param *.**.nic.phy80211p.sensitivity -94dBm
param *.**.nic.phy80211p.thermalNoise -95dBm
param *.**.nic.phy80211p.usePropagationDelay true
param *.**.nic.phy80211p.useThermalNoise true
param *.annotations.draw false
param *.connectionManager.alpha 2.0
param *.connectionManager.carrierFrequency "5.890e9 Hz"
param *.connectionManager.pMax 100mW
param *.connectionManager.sat -94dBm
param *.connectionManager.sendDirect true
param *.manager.autoShutdown true
param *.manager.commandLine "\"sumo --remote-port $port --seed $seed --configuration-file $configFile\""
param *.manager.configFile "\"./sumocfg/freeway.sumo.cfg\""
param *.manager.host "\"localhost\""
param *.manager.margin 25
param *.manager.moduleDisplayString "\"\""
param *.manager.moduleName "\"node\""
param *.manager.moduleType "\"Car\""
param *.manager.updateInterval 0.01s
param *.node[*].appl.attackStart 30s
param *.node[*].appl.attackerType 3
param *.node[*].appl.simulationDuration "60 s"
param *.node[*].appl_type "\"SimplePlatooningApp\""
param *.node[*].helper.nCars 8
param *.node[*].helper.nLanes 1
param *.node[*].helper.platoonSize 8
param *.node[*].helper_type "\"PositionHelper\""
param *.node[*].mobility.x 0
param *.node[*].mobility.y 0
param *.node[*].mobility.z 1.895
param *.node[*].prot.attackStart 30s
param *.node[*].prot.attackerType 3
param *.node[*].prot.attackingNode 3
param *.node[*].prot.beaconingInterval 0.1s
param *.node[*].prot.fakeAcc "(3 == 4)"
param *.node[*].prot.fakePos "(3 == 2)"
param *.node[*].prot.fakeSpeed "(3 == 3)"
param *.node[*].prot.maliciousAcc "-30 mpss"
param *.node[*].prot.maliciousSpeed 0kmph
param *.node[*].prot.packetSize 200
param *.node[*].prot.priority 2
param *.node[*].prot.shiftX "7 m"
param *.node[*].prot.useControllerAcceleration true
param *.node[*].protocol_type "\"SimplePlatooningBeaconing\""
param *.node[*].scenario.accHeadway 0.1s
param *.node[*].scenario.caccC1 0.5
param *.node[*].scenario.caccOmegaN "0.2 Hz"
param *.node[*].scenario.caccSpacing 5m
param *.node[*].scenario.caccXi 1
param *.node[*].scenario.controller "\"CACC\""
param *.node[*].scenario.engineTau "0.5 s"
param *.node[*].scenario.leaderHeadway 1.2s
param *.node[*].scenario.leaderSpeed 100kmph
param *.node[*].scenario.ploegH 0.5s
param *.node[*].scenario.ploegKd 0.7
param *.node[*].scenario.ploegKp 0.2
param *.node[*].scenario.useRealisticEngine false
param *.node[*].scenario_type "\"SinusoidalScenario\""
param *.node[*].unicast.packetLossRate 0
param *.obstacles.debug false
param *.playgroundSizeX 65000m
param *.playgroundSizeY 25000m
param *.playgroundSizeZ 50m
param *.world.use2D false
param *.world.useTorus false

vector 0  scenario.node[0].appl  distance  ETV
vector 1  scenario.node[0].appl  relativeSpeed  ETV
vector 2  scenario.node[0].appl  nodeId  ETV
vector 6  scenario.node[0].appl  acceleration  ETV
vector 7  scenario.node[0].appl  controllerAcceleration  ETV
vector 3  scenario.node[0].appl  speed  ETV
vector 4  scenario.node[0].appl  posx  ETV
vector 5  scenario.node[0].appl  posy  ETV
vector 22  scenario.node[1].appl  distance  ETV
vector 23  scenario.node[1].appl  relativeSpeed  ETV
vector 24  scenario.node[1].appl  nodeId  ETV
vector 28  scenario.node[1].appl  acceleration  ETV
vector 29  scenario.node[1].appl  controllerAcceleration  ETV
vector 25  scenario.node[1].appl  speed  ETV
vector 26  scenario.node[1].appl  posx  ETV
vector 27  scenario.node[1].appl  posy  ETV
vector 44  scenario.node[2].appl  distance  ETV
vector 45  scenario.node[2].appl  relativeSpeed  ETV
vector 46  scenario.node[2].appl  nodeId  ETV
vector 50  scenario.node[2].appl  acceleration  ETV
vector 51  scenario.node[2].appl  controllerAcceleration  ETV
vector 47  scenario.node[2].appl  speed  ETV
vector 48  scenario.node[2].appl  posx  ETV
vector 49  scenario.node[2].appl  posy  ETV
vector 66  scenario.node[3].appl  distance  ETV
vector 67  scenario.node[3].appl  relativeSpeed  ETV
vector 68  scenario.node[3].appl  nodeId  ETV
vector 72  scenario.node[3].appl  acceleration  ETV
vector 73  scenario.node[3].appl  controllerAcceleration  ETV
vector 69  scenario.node[3].appl  speed  ETV
vector 70  scenario.node[3].appl  posx  ETV
vector 71  scenario.node[3].appl  posy  ETV
vector 88  scenario.node[4].appl  distance  ETV
vector 89  scenario.node[4].appl  relativeSpeed  ETV
vector 90  scenario.node[4].appl  nodeId  ETV
vector 94  scenario.node[4].appl  acceleration  ETV
vector 95  scenario.node[4].appl  controllerAcceleration  ETV
vector 91  scenario.node[4].appl  speed  ETV
vector 92  scenario.node[4].appl  posx  ETV
vector 93  scenario.node[4].appl  posy  ETV
vector 110  scenario.node[5].appl  distance  ETV
vector 111  scenario.node[5].appl  relativeSpeed  ETV
vector 112  scenario.node[5].appl  nodeId  ETV
vector 116  scenario.node[5].appl  acceleration  ETV
vector 117  scenario.node[5].appl  controllerAcceleration  ETV
vector 113  scenario.node[5].appl  speed  ETV
vector 114  scenario.node[5].appl  posx  ETV
vector 115  scenario.node[5].appl  posy  ETV
vector 132  scenario.node[6].appl  distance  ETV
vector 133  scenario.node[6].appl  relativeSpeed  ETV
vector 134  scenario.node[6].appl  nodeId  ETV
vector 138  scenario.node[6].appl  acceleration  ETV
vector 139  scenario.node[6].appl  controllerAcceleration  ETV
vector 135  scenario.node[6].appl  speed  ETV
vector 136  scenario.node[6].appl  posx  ETV
vector 137  scenario.node[6].appl  posy  ETV
vector 154  scenario.node[7].appl  distance  ETV
vector 155  scenario.node[7].appl  relativeSpeed  ETV
vector 156  scenario.node[7].appl  nodeId  ETV
vector 160  scenario.node[7].appl  acceleration  ETV
vector 161  scenario.node[7].appl  controllerAcceleration  ETV
vector 157  scenario.node[7].appl  speed  ETV
vector 158  scenario.node[7].appl  posx  ETV
vector 159  scenario.node[7].appl  posy  ETV
vector 35  scenario.node[1].prot  leaderDelay  ETV
vector 33  scenario.node[1].prot  leaderDelayId  ETV
vector 36  scenario.node[1].prot  frontDelay  ETV
vector 34  scenario.node[1].prot  frontDelayId  ETV
vector 57  scenario.node[2].prot  leaderDelay  ETV
vector 55  scenario.node[2].prot  leaderDelayId  ETV
vector 79  scenario.node[3].prot  leaderDelay  ETV
vector 77  scenario.node[3].prot  leaderDelayId  ETV
vector 101  scenario.node[4].prot  leaderDelay  ETV
vector 99  scenario.node[4].prot  leaderDelayId  ETV
vector 123  scenario.node[5].prot  leaderDelay  ETV
vector 121  scenario.node[5].prot  leaderDelayId  ETV
vector 145  scenario.node[6].prot  leaderDelay  ETV
vector 143  scenario.node[6].prot  leaderDelayId  ETV
vector 167  scenario.node[7].prot  leaderDelay  ETV
vector 165  scenario.node[7].prot  leaderDelayId  ETV
vector 168  scenario.node[7].prot  frontDelay  ETV
vector 166  scenario.node[7].prot  frontDelayId  ETV
vector 58  scenario.node[2].prot  frontDelay  ETV
vector 56  scenario.node[2].prot  frontDelayId  ETV
vector 124  scenario.node[5].prot  frontDelay  ETV
vector 122  scenario.node[5].prot  frontDelayId  ETV
vector 80  scenario.node[3].prot  frontDelay  ETV
vector 78  scenario.node[3].prot  frontDelayId  ETV
vector 146  scenario.node[6].prot  frontDelay  ETV
vector 144  scenario.node[6].prot  frontDelayId  ETV
vector 102  scenario.node[4].prot  frontDelay  ETV
vector 100  scenario.node[4].prot  frontDelayId  ETV
vector 8  scenario.node[0].prot  nodeId  ETV
vector 9  scenario.node[0].prot  busyTime  ETV
vector 10  scenario.node[0].prot  collisions  ETV
vector 30  scenario.node[1].prot  nodeId  ETV
vector 31  scenario.node[1].prot  busyTime  ETV
vector 32  scenario.node[1].prot  collisions  ETV
vector 52  scenario.node[2].prot  nodeId  ETV
vector 53  scenario.node[2].prot  busyTime  ETV
vector 54  scenario.node[2].prot  collisions  ETV
vector 74  scenario.node[3].prot  nodeId  ETV
vector 75  scenario.node[3].prot  busyTime  ETV
vector 76  scenario.node[3].prot  collisions  ETV
vector 96  scenario.node[4].prot  nodeId  ETV
vector 97  scenario.node[4].prot  busyTime  ETV
vector 98  scenario.node[4].prot  collisions  ETV
vector 118  scenario.node[5].prot  nodeId  ETV
vector 119  scenario.node[5].prot  busyTime  ETV
vector 120  scenario.node[5].prot  collisions  ETV
vector 140  scenario.node[6].prot  nodeId  ETV
vector 141  scenario.node[6].prot  busyTime  ETV
vector 142  scenario.node[6].prot  collisions  ETV
vector 162  scenario.node[7].prot  nodeId  ETV
vector 163  scenario.node[7].prot  busyTime  ETV
vector 164  scenario.node[7].prot  collisions  ETV
7	11075 7369 232 172555 1.11 32.01 310 -1.5 1.5 15.930730561805 491.06832678018
6	18444 9721 232 172555 1.11 32.01 310 -1.4722746794938 1.451340770512 8.5947175061332 331.37550917829
5	28165 6222 232 172555 1.11 32.01 310 36.55 36.55 11330.5 414129.775
4	34387 9288 232 172555 1.11 32.01 310 105.1237327573 966.71491714655 166592.25088568 108854171.66352
3	43675 9288 232 172555 1.11 32.01 310 26.488037261118 29.742492528104 8643.9803509162 241253.44079257
1	52963 4982 232 172555 1.11 32.01 310 0 0 0 0
0	57945 5292 232 172555 1.11 32.01 310 -1 -1 -310 310
2	63237 4982 232 172555 1.11 32.01 310 0 0 0 0
10	68219 438 5056 172366 2 32 31 0 0 0 0
9	68657 800 5056 172366 2 32 31 0.022754155264 0.026262199507 0.810255321481 0.021189688125225
8	69457 407 5056 172366 2 32 31 0 0 0 0
29	69864 9956 233 172556 1.11 32.01 310 -1.5233934266307 1.5241492081013 15.042879616303 498.15695904698
28	79820 10010 233 172556 1.11 32.01 310 -1.4872877099247 1.4632119897342 7.7087382285953 333.81040030678
27	89830 6532 233 172556 1.11 32.01 310 36.55 36.55 11330.5 414129.775
26	96362 9594 233 172556 1.11 32.01 310 96.123732757568 957.65499372324 163800.08468559 105879786.23624
25	105956 9590 233 172556 1.11 32.01 310 26.480495436544 29.7479049181 8643.34901649 241220.74521677
23	115546 10478 233 172556 1.11 32.01 310 -0.085370607543855 0.085492920015213 0.54538725119001 1.2023018323775
22	126024 9605 233 172556 1.11 32.01 310 4.9094713916734 5.1291544591456 1552.1535733964 7772.6386554351
24	135629 5292 233 172556 1.11 32.01 310 1 1 310 310
36	140921 12278 836 172603 1.269557810561 32.069559917423 309 0.09999877886 0.100011819376 30.900000887402 3.0900001819211
35	153199 12278 836 172603 1.269557810561 32.069559917423 309 0.09999877886 0.100011819376 30.900000887402 3.0900001819211
34	165477 8334 836 172603 1.269557810561 32.069559917423 309 1 1 309 309
33	173811 8334 836 172603 1.269557810561 32.069559917423 309 1 1 309 309
32	182145 438 5057 172367 2 32 31 0 0 0 0
31	182583 834 5057 172367 2 32 31 0.022754185285 0.026262199235 0.810255351696 0.021189689501608
30	183417 438 5057 172367 2 32 31 1 1 31 31
51	183855 9972 234 172557 1.11 32.01 310 -1.5293286426574 1.5293868312278 15.051866097067 499.70146660934
50	193827 10019 234 172557 1.11 32.01 310 -1.4784118018742 1.4535038994509 7.461324700304 330.36129630815
49	203846 6532 234 172557 1.11 32.01 310 36.55 36.55 11330.5 414129.775
48	210378 9605 234 172557 1.11 32.01 310 87.123736572266 948.64863118894 161008.92007629 102955810.07945
47	219983 9606 234 172557 1.11 32.01 310 26.486433744786 29.741726885622 8643.2770113243 241214.49472119
45	229589 10697 234 172557 1.11 32.01 310 -0.011889281771836 0.011086342038105 -0.0050822166749178 0.010767695446674
44	240286 9610 234 172557 1.11 32.01 310 4.9825737970804 5.0363330005423 1551.1631692026 7761.6913684848
46	249896 5292 234 172557 1.11 32.01 310 2 2 620 1240
58	255188 12251 1046 172242 1.299189200831 31.999192438994 308 0.099998778849 0.100011845282 30.800002018703 3.0800004081807
57	267439 12277 842 172609 1.269557840582 32.069559947469 309 0.099998778859 0.100011819382 30.900000887427 3.0900001819261
56	279716 8311 1046 172242 1.299189200831 31.999192438994 308 2 2 616 1232
55	288027 8332 842 172609 1.269557840582 32.069559947469 309 2 2 618 1236
54	296359 438 5058 172368 2 32 31 0 0 0 0
53	296797 833 5058 172368 2 32 31 0.022754215306 0.026262199165 0.810255381736 0.021189690868811
52	297630 438 5058 172368 2 32 31 2 2 62 124
73	298068 9945 235 172558 1.11 32.01 310 -1.4888807626142 1.4893729040721 13.807897140464 465.75041057288
72	308013 10009 235 172558 1.11 32.01 310 -1.4638941744185 1.4373649686267 6.9853111390383 322.98618829795
71	318022 6532 235 172558 1.11 32.01 310 36.55 36.55 11330.5 414129.775
70	324554 9606 235 172558 1.11 32.01 310 78.123736572266 939.63868780717 158217.83551031 100082792.75568
69	334160 9605 235 172558 1.11 32.01 310 26.50134495605 29.728229054346 8643.1613106422 241203.59171902
67	343765 10501 235 172558 1.11 32.01 310 -0.037725854740227 0.033958277041716 0.041087435118911 0.13121351280758
66	354266 9565 235 172558 1.11 32.01 310 4.9599643548233 5.0696736727892 1551.0822519634 7761.0492966854
68	363831 5292 235 172558 1.11 32.01 310 3 3 930 2790
80	369123 12254 1180 172391 1.300210350935 32.000213648315 308 0.099998778852 0.100011861286 30.80000207792 3.0800004200245
79	381377 12279 848 172615 1.269557870602 32.06955997753 309 0.099998778857 0.100011819393 30.900000887468 3.0900001819343
78	393656 8309 1180 172391 1.300210350935 32.000213648315 308 3 3 924 2772
77	401965 8340 848 172615 1.269557870602 32.06955997753 309 3 3 927 2781
76	410305 438 5059 172369 2 32 31 0 0 0 0
75	410743 831 5059 172369 2 32 31 0.022753185285 0.026262199305 0.810254351685 0.021189643993662
74	411574 438 5059 172369 2 32 31 3 3 93 279
95	412012 9965 236 172559 1.11 32.01 310 -6.9967647871886 1.4833558258224 -109.75491023711 898.77742385128
94	421977 10018 236 172559 1.11 32.01 310 -4.9148299462296 1.427517153359 -95.41205693017 652.95111399863
93	431995 6532 236 172559 1.11 32.01 310 36.55 36.55 11330.5 414129.775
92	438527 9605 236 172559 1.11 32.01 310 69.123736572266 921.57538434284 155367.88499978 97151837.786532
91	448132 9588 236 172559 1.11 32.01 310 18.385140080698 29.714956172217 8548.9776920034 236640.33941876
89	457720 10629 236 172559 1.11 32.01 310 -0.012164313716085 10.013402482348 94.113765527431 647.79786085312
88	468349 9558 236 172559 1.11 32.01 310 4.98505643639 13.86274835875 1608.0668381563 8647.4207477667
90	477907 5292 236 172559 1.11 32.01 310 4 4 1240 4960
102	483199 12567 1312 172523 1.306028501039 32.006031856794 308 0.099907778985 0.100089782295 30.799937136295 3.079987956261
101	495766 12590 854 172621 1.269557900623 32.069560039491 309 0.099998778855 0.100011821662 30.900000919408 3.0900001883223
100	508356 8631 1312 172523 1.306028501039 32.006031856794 308 4 4 1232 4928
99	516987 8342 854 172621 1.269557900623 32.069560039491 309 4 4 1236 4944
98	525329 438 5060 172370 2 32 31 0 0 0 0
97	525767 835 5060 172370 2 32 31 0.022754155264 0.026262199361 0.810255292101 0.021189686582844
96	526602 438 5060 172370 2 32 31 4 4 124 496
139	527040 10284 238 172561 1.11 32.01 310 -1.4833385430233 1.4846826986197 -24.348061320352 426.5221061189
138	537324 10339 238 172561 1.11 32.01 310 -1.4512379873675 1.4280810607264 -22.405294170366 300.34407890208
137	547663 6842 238 172561 1.11 32.01 310 36.55 36.55 11330.5 414129.775
136	554505 9912 238 172561 1.11 32.01 310 51.123734664917 910.38604842096 149830.3742381 91737311.05072
135	564417 9909 238 172561 1.11 32.01 310 25.55974280313 29.71147884354 8619.6199271587 239939.71469997
133	574326 10760 238 172561 1.11 32.01 310 -2.4358463391441 0.046328186689518 -21.351724921568 36.577189144357
132	585086 9912 238 172561 1.11 32.01 310 2.9533264346651 5.0375578761627 1538.886574398 7654.9866615935
134	594998 5602 238 172561 1.11 32.01 310 6 6 1860 11160
146	600600 12549 1249 172460 1.305615440997 32.005605745619 308 0.099998778836 0.100011794714 30.799989085162 3.0799978213337
145	613149 12597 866 172633 1.269557960665 32.069560075597 309 0.099998778853 0.100011819962 30.900000895472 3.0900001835351
144	625746 8618 1249 172460 1.305615440997 32.005605745619 308 6 6 1848 11088
143	634364 8653 866 172633 1.269557960665 32.069560075597 309 6 6 1854 11124
142	643017 469 5062 172372 2 32 31 0 0 0 0
141	643486 865 5062 172372 2 32 31 0.022754095223 0.026262199288 0.810255254299 0.021189685017974
140	644351 469 5062 172372 2 32 31 6 6 186 1116
161	644820 10289 239 172562 1.11 32.01 310 -1.5021746592368 1.5049027577872 -7.5903832750712 440.79914980458
160	655109 10353 239 172562 1.11 32.01 310 -1.4497273646167 1.4254867382512 -8.2216623152451 294.94324063455
159	665462 6842 239 172562 1.11 32.01 310 36.55 36.55 11330.5 414129.775
158	672304 9901 239 172562 1.11 32.01 310 42.123735618591 902.58011716836 147046.71621619 89077871.622242
157	682205 9916 239 172562 1.11 32.01 310 26.507078800052 29.708149860435 8632.051972689 240593.40614993
155	692121 10996 239 172562 1.11 32.01 310 -1.3789648970246 0.0045407892561187 -12.207992588565 11.417133345278
154	703117 9905 239 172562 1.11 32.01 310 3.8336276266147 5.0189441838257 1543.9066628197 7694.4359819475
156	713022 5602 239 172562 1.11 32.01 310 7 7 2170 15190
168	718624 12559 980 172182 1.292107050727 31.992097277607 308 0.099998778853 0.100011791298 30.79998900742 3.0799978057854
167	731183 12600 872 172639 1.269557990685 32.069560101398 309 0.099998778853 0.100011819664 30.900000891253 3.0900001826913
166	743783 8622 980 172182 1.292107050727 31.992097277607 308 7 7 2156 15092
165	752405 8649 872 172639 1.269557990685 32.069560101398 309 7 7 2163 15141
164	761054 469 5063 172373 2 32 31 0 0 0 0
163	761523 864 5063 172373 2 32 31 0.022754065202 0.026262199331 0.810255228169 0.021189683856042
162	762387 469 5063 172373 2 32 31 7 7 217 1519
110	762856 9904 237 172641 1.11 32.07 311 0 5.0187625636247 1520.0370319819 7542.3750436506
111	772760 10851 237 172641 1.11 32.07 311 -4.8014372363877 0.019160268250925 -52.662385555609 182.56334818214
112	783611 5621 237 172641 1.11 32.07 311 5 5 1555 7775
113	789232 9948 237 172641 1.11 32.07 311 22.991484541621 29.705511400843 8620.7842454335 239375.40799574
114	799180 9941 237 172641 1.11 32.07 311 60.123736572266 918.67147029035 153527.49573947 95281715.693537
115	809121 6865 237 172641 1.11 32.07 311 36.55 36.55 11367.05 415465.6775
116	815986 10375 237 172641 1.11 32.07 311 -2.0859346670363 1.422156913009 -49.437649424346 361.39085519724
117	826361 10338 237 172641 1.11 32.07 311 -2.8869061234225 1.5049213357984 -60.891262378522 536.51202399215
118	836699 469 5061 172371 2 32 31 5 5 155 775
119	837168 864 5061 172371 2 32 31 0.022753125244 0.026262199367 0.810254277493 0.021189640518527
120	838032 469 5061 172371 2 32 31 0 0 0 0
121	838501 8657 860 172627 1.269557930644 32.069560052985 309 5 5 1545 7725
122	847158 8615 1112 172308 1.299602290893 31.999592543237 308 5 5 1540 7700
123	855773 12603 860 172627 1.269557930644 32.069560052985 309 0.099998778852 0.100011820501 30.900000902881 3.0900001850169
124	868376 12549 1112 172308 1.299602290893 31.999592543237 308 0.099998778842 0.10001179672 30.799989032884 3.0799978108783
