version 2
run SinusoidalSpeedInjectionAttack-129-20170802-19:21:46-52541
attr CACCSpacing 20
attr attackAcc -30
attr attackPos 7
attr attackSpeed 50
attr attackStart 30
attr attacker 3
attr beaconInterval 0.1
attr configname SinusoidalSpeedInjectionAttack
attr controller 1
attr datetime 20170802-19:21:46
attr experiment SinusoidalSpeedInjectionAttack
attr fakeAcc "(3 == 4)"
attr fakePos "(3 == 2)"
attr fakeSpeed "(3 == 3)"
attr inifile omnetpp_129.ini
attr iterationvars "$attacker=3, $attackSpeed=50, $attackPos=7, $attackAcc=-30, $leaderSpeed=50, $controller=1, $CACCSpacing=20, $sController=\"CACC\", $attackStart=30, $0=20, $1=0, $nCars=8, $platoonSize=8, $nLanes=1, $beaconInterval=0.1, $priority=2, $packetSize=200, $ploegH=0.5, $leaderHeadway=1.2, $fakeSpeed=(3 == 3), $fakeAcc=(3 == 4), $fakePos=(3 == 2)"
attr iterationvarsf attacker=3,attackSpeed=50,attackPos=7,attackAcc=-30,leaderSpeed=50,controller=1,CACCSpacing=20,sController=CACC,attackStart=30,20,0,nCars=8,platoonSize=8,nLanes=1,beaconInterval=0.1,priority=2,packetSize=200,ploegH=0.5,leaderHeadway=1.2,fakeSpeed=(3_==_3),fakeAcc=(3_==_4),fakePos=(3_==_2)-
attr leaderHeadway 1.2
attr leaderSpeed 50
attr measurement "$attacker=3, $attackSpeed=50, $attackPos=7, $attackAcc=-30, $leaderSpeed=50, $controller=1, $CACCSpacing=20, $sController=\"CACC\", $attackStart=30, $0=20, $1=0, $nCars=8, $platoonSize=8, $nLanes=1, $beaconInterval=0.1, $priority=2, $packetSize=200, $ploegH=0.5, $leaderHeadway=1.2, $fakeSpeed=(3 == 3), $fakeAcc=(3 == 4), $fakePos=(3 == 2)"
attr nCars 8
attr nLanes 1
attr network scenario
attr packetSize 200
attr platoonSize 8
attr ploegH 0.5
attr priority 2
attr processid 52541
attr repetition 4
attr replication #4
attr resultdir results
attr runnumber 129
attr sController "\"CACC\""
attr seedset 4
param **.coreDebug false
param **.debug false
param **.headway 0.1s
param **.numberOfCars 8
param **.numberOfCarsPerPlatoon 8
param **.numberOfLanes 1
param **.numericController 1
param **.traffic.nCars 8
param **.traffic.nLanes 1
param **.traffic.platoonInsertDistance 20m
param **.traffic.platoonInsertHeadway 0s
param **.traffic.platoonInsertSpeed 50kmph
param **.traffic.platoonInsertTime "1 s"
param **.traffic.platoonLeaderHeadway 1.2s
param **.traffic.platoonSize 8
param **.traffic.platooningVType "\"vtypeauto\""
param **.traffic_type "\"PlatoonsTrafficManager\""
param *.**.nic.mac1609_4.bitrate 6Mbps
param *.**.nic.mac1609_4.txPower 100mW
param *.**.nic.mac1609_4.useServiceChannel false
param *.**.nic.phy80211p.analogueModels "xmldoc(\"config.xml\")"
param *.**.nic.phy80211p.decider "xmldoc(\"config.xml\")"
param *.**.nic.phy80211p.maxTXPower 100mW
param *.**.nic.phy80211p.sensitivity -94dBm
param *.**.nic.phy80211p.thermalNoise -95dBm
param *.**.nic.phy80211p.usePropagationDelay true
param *.**.nic.phy80211p.useThermalNoise true
param *.annotations.draw false
param *.connectionManager.alpha 2.0
param *.connectionManager.carrierFrequency "5.890e9 Hz"
param *.connectionManager.pMax 100mW
param *.connectionManager.sat -94dBm
param *.connectionManager.sendDirect true
param *.manager.autoShutdown true
param *.manager.commandLine "\"sumo --remote-port $port --seed $seed --configuration-file $configFile\""
param *.manager.configFile "\"./sumocfg/freeway.sumo.cfg\""
param *.manager.host "\"localhost\""
param *.manager.margin 25
param *.manager.moduleDisplayString "\"\""
param *.manager.moduleName "\"node\""
param *.manager.moduleType "\"Car\""
param *.manager.updateInterval 0.01s
param *.node[*].appl.attackStart 30s
param *.node[*].appl.attackerType 3
param *.node[*].appl.simulationDuration "60 s"
param *.node[*].appl_type "\"SimplePlatooningApp\""
param *.node[*].helper.nCars 8
param *.node[*].helper.nLanes 1
param *.node[*].helper.platoonSize 8
param *.node[*].helper_type "\"PositionHelper\""
param *.node[*].mobility.x 0
param *.node[*].mobility.y 0
param *.node[*].mobility.z 1.895
param *.node[*].prot.attackStart 30s
param *.node[*].prot.attackerType 3
param *.node[*].prot.attackingNode 3
param *.node[*].prot.beaconingInterval 0.1s
param *.node[*].prot.fakeAcc "(3 == 4)"
param *.node[*].prot.fakePos "(3 == 2)"
param *.node[*].prot.fakeSpeed "(3 == 3)"
param *.node[*].prot.maliciousAcc "-30 mpss"
param *.node[*].prot.maliciousSpeed 50kmph
param *.node[*].prot.packetSize 200
param *.node[*].prot.priority 2
param *.node[*].prot.shiftX "7 m"
param *.node[*].prot.useControllerAcceleration true
param *.node[*].protocol_type "\"SimplePlatooningBeaconing\""
param *.node[*].scenario.accHeadway 0.1s
param *.node[*].scenario.caccC1 0.5
param *.node[*].scenario.caccOmegaN "0.2 Hz"
param *.node[*].scenario.caccSpacing 20m
param *.node[*].scenario.caccXi 1
param *.node[*].scenario.controller "\"CACC\""
param *.node[*].scenario.engineTau "0.5 s"
param *.node[*].scenario.leaderHeadway 1.2s
param *.node[*].scenario.leaderOscillationFrequency "0.2 Hz"
param *.node[*].scenario.leaderSpeed 50kmph
param *.node[*].scenario.oscillationAmplitude "10 kmph"
param *.node[*].scenario.ploegH 0.5s
param *.node[*].scenario.ploegKd 0.7
param *.node[*].scenario.ploegKp 0.2
param *.node[*].scenario.startOscillating "5 s"
param *.node[*].scenario.useRealisticEngine false
param *.node[*].scenario_type "\"SinusoidalScenario\""
param *.node[*].unicast.packetLossRate 0
param *.obstacles.debug false
param *.playgroundSizeX 65000m
param *.playgroundSizeY 25000m
param *.playgroundSizeZ 50m
param *.world.use2D false
param *.world.useTorus false

vector 0  scenario.node[0].appl  distance  ETV
vector 1  scenario.node[0].appl  relativeSpeed  ETV
vector 2  scenario.node[0].appl  nodeId  ETV
vector 6  scenario.node[0].appl  acceleration  ETV
vector 7  scenario.node[0].appl  controllerAcceleration  ETV
vector 3  scenario.node[0].appl  speed  ETV
vector 4  scenario.node[0].appl  posx  ETV
vector 5  scenario.node[0].appl  posy  ETV
vector 22  scenario.node[1].appl  distance  ETV
vector 23  scenario.node[1].appl  relativeSpeed  ETV
vector 24  scenario.node[1].appl  nodeId  ETV
vector 28  scenario.node[1].appl  acceleration  ETV
vector 29  scenario.node[1].appl  controllerAcceleration  ETV
vector 25  scenario.node[1].appl  speed  ETV
vector 26  scenario.node[1].appl  posx  ETV
vector 27  scenario.node[1].appl  posy  ETV
vector 44  scenario.node[2].appl  distance  ETV
vector 45  scenario.node[2].appl  relativeSpeed  ETV
vector 46  scenario.node[2].appl  nodeId  ETV
vector 50  scenario.node[2].appl  acceleration  ETV
vector 51  scenario.node[2].appl  controllerAcceleration  ETV
vector 47  scenario.node[2].appl  speed  ETV
vector 48  scenario.node[2].appl  posx  ETV
vector 49  scenario.node[2].appl  posy  ETV
vector 66  scenario.node[3].appl  distance  ETV
vector 67  scenario.node[3].appl  relativeSpeed  ETV
vector 68  scenario.node[3].appl  nodeId  ETV
vector 72  scenario.node[3].appl  acceleration  ETV
vector 73  scenario.node[3].appl  controllerAcceleration  ETV
vector 69  scenario.node[3].appl  speed  ETV
vector 70  scenario.node[3].appl  posx  ETV
vector 71  scenario.node[3].appl  posy  ETV
vector 88  scenario.node[4].appl  distance  ETV
vector 89  scenario.node[4].appl  relativeSpeed  ETV
vector 90  scenario.node[4].appl  nodeId  ETV
vector 94  scenario.node[4].appl  acceleration  ETV
vector 95  scenario.node[4].appl  controllerAcceleration  ETV
vector 91  scenario.node[4].appl  speed  ETV
vector 92  scenario.node[4].appl  posx  ETV
vector 93  scenario.node[4].appl  posy  ETV
vector 110  scenario.node[5].appl  distance  ETV
vector 111  scenario.node[5].appl  relativeSpeed  ETV
vector 112  scenario.node[5].appl  nodeId  ETV
vector 116  scenario.node[5].appl  acceleration  ETV
vector 117  scenario.node[5].appl  controllerAcceleration  ETV
vector 113  scenario.node[5].appl  speed  ETV
vector 114  scenario.node[5].appl  posx  ETV
vector 115  scenario.node[5].appl  posy  ETV
vector 132  scenario.node[6].appl  distance  ETV
vector 133  scenario.node[6].appl  relativeSpeed  ETV
vector 134  scenario.node[6].appl  nodeId  ETV
vector 138  scenario.node[6].appl  acceleration  ETV
vector 139  scenario.node[6].appl  controllerAcceleration  ETV
vector 135  scenario.node[6].appl  speed  ETV
vector 136  scenario.node[6].appl  posx  ETV
vector 137  scenario.node[6].appl  posy  ETV
vector 154  scenario.node[7].appl  distance  ETV
vector 155  scenario.node[7].appl  relativeSpeed  ETV
vector 156  scenario.node[7].appl  nodeId  ETV
vector 160  scenario.node[7].appl  acceleration  ETV
vector 161  scenario.node[7].appl  controllerAcceleration  ETV
vector 157  scenario.node[7].appl  speed  ETV
vector 158  scenario.node[7].appl  posx  ETV
vector 159  scenario.node[7].appl  posy  ETV
vector 102  scenario.node[4].prot  frontDelay  ETV
vector 100  scenario.node[4].prot  frontDelayId  ETV
vector 35  scenario.node[1].prot  leaderDelay  ETV
vector 33  scenario.node[1].prot  leaderDelayId  ETV
vector 36  scenario.node[1].prot  frontDelay  ETV
vector 34  scenario.node[1].prot  frontDelayId  ETV
vector 57  scenario.node[2].prot  leaderDelay  ETV
vector 55  scenario.node[2].prot  leaderDelayId  ETV
vector 79  scenario.node[3].prot  leaderDelay  ETV
vector 77  scenario.node[3].prot  leaderDelayId  ETV
vector 101  scenario.node[4].prot  leaderDelay  ETV
vector 99  scenario.node[4].prot  leaderDelayId  ETV
vector 123  scenario.node[5].prot  leaderDelay  ETV
vector 121  scenario.node[5].prot  leaderDelayId  ETV
vector 145  scenario.node[6].prot  leaderDelay  ETV
vector 143  scenario.node[6].prot  leaderDelayId  ETV
vector 167  scenario.node[7].prot  leaderDelay  ETV
vector 165  scenario.node[7].prot  leaderDelayId  ETV
vector 80  scenario.node[3].prot  frontDelay  ETV
vector 78  scenario.node[3].prot  frontDelayId  ETV
vector 146  scenario.node[6].prot  frontDelay  ETV
vector 144  scenario.node[6].prot  frontDelayId  ETV
vector 58  scenario.node[2].prot  frontDelay  ETV
vector 56  scenario.node[2].prot  frontDelayId  ETV
vector 124  scenario.node[5].prot  frontDelay  ETV
vector 122  scenario.node[5].prot  frontDelayId  ETV
vector 168  scenario.node[7].prot  frontDelay  ETV
vector 166  scenario.node[7].prot  frontDelayId  ETV
vector 8  scenario.node[0].prot  nodeId  ETV
vector 9  scenario.node[0].prot  busyTime  ETV
vector 10  scenario.node[0].prot  collisions  ETV
vector 30  scenario.node[1].prot  nodeId  ETV
vector 31  scenario.node[1].prot  busyTime  ETV
vector 32  scenario.node[1].prot  collisions  ETV
vector 52  scenario.node[2].prot  nodeId  ETV
vector 53  scenario.node[2].prot  busyTime  ETV
vector 54  scenario.node[2].prot  collisions  ETV
vector 74  scenario.node[3].prot  nodeId  ETV
vector 75  scenario.node[3].prot  busyTime  ETV
vector 76  scenario.node[3].prot  collisions  ETV
vector 96  scenario.node[4].prot  nodeId  ETV
vector 97  scenario.node[4].prot  busyTime  ETV
vector 98  scenario.node[4].prot  collisions  ETV
vector 118  scenario.node[5].prot  nodeId  ETV
vector 119  scenario.node[5].prot  busyTime  ETV
vector 120  scenario.node[5].prot  collisions  ETV
vector 140  scenario.node[6].prot  nodeId  ETV
vector 141  scenario.node[6].prot  busyTime  ETV
vector 142  scenario.node[6].prot  collisions  ETV
vector 162  scenario.node[7].prot  nodeId  ETV
vector 163  scenario.node[7].prot  busyTime  ETV
vector 164  scenario.node[7].prot  collisions  ETV
7	232	1.11	-4.215365603244e-07
7	788	1.21	-4.123519392607e-07
7	1344	1.31	-3.9742146640265e-07
7	1900	1.41	-3.7804518804307e-07
7	2456	1.51	-3.5536931619617e-07
7	3012	1.61	-3.3039333047213e-07
7	3568	1.71	-3.039784495229e-07
7	4124	1.81	-2.7685694803381e-07
7	4680	1.91	-2.4964219491608e-07
7	5244	2.01	-2.2283905920517e-07
7	5800	2.11	-1.9685434082817e-07
7	6356	2.21	-1.7200705926257e-07
7	6912	2.31	-1.4853853436136e-07
7	7468	2.41	-1.2662199289082e-07
7	8024	2.51	-1.0637172032091e-07
7	8580	2.61	-8.7851576680009e-08
7	9136	2.71	-7.1082913777332e-08
7	9692	2.81	-5.6051822738823e-08
7	10248	2.91	-4.2715759818179e-08
7	10812	3.01	-3.1009408374416e-08
7	11368	3.11	-2.0849929782685e-08
7	11924	3.21	-1.2141658345399e-08
7	12480	3.31	-4.7800785551999e-09
7	13036	3.41	1.3447181146375e-09
7	13592	3.51	6.3450702469936e-09
7	14148	3.61	1.0333288003039e-08
7	14704	3.71	1.3419677813431e-08
7	15260	3.81	1.5710899248234e-08
7	15816	3.91	1.7308703803565e-08
7	16380	4.01	1.830899876154e-08
7	16936	4.11	1.8801173951033e-08
7	17492	4.21	1.8867702067382e-08
7	18048	4.31	1.8583865113442e-08
7	18604	4.41	1.8017717096086e-08
7	19160	4.51	1.723012310606e-08
7	19716	4.61	1.6274986691656e-08
7	20272	4.71	1.5199535852162e-08
7	20828	4.81	1.4044672980162e-08
7	21384	4.91	1.2845363883685e-08
7	21949	5.01	1.1631094309905e-08
7	22506	5.11	0.3481478814383
7	23063	5.21	0.68726936236521
7	23620	5.31	1.0064706229906
7	24177	5.41	1.2963311628453
7	24734	5.51	1.5
7	25291	5.61	1.5
7	25848	5.71	1.5
7	26405	5.81	1.5
7	26962	5.91	1.5
7	27527	6.01	1.5
7	28084	6.11	1.5
7	28641	6.21	1.5
7	29198	6.31	1.5
7	29755	6.41	1.5
7	30312	6.51	1.4919234130517
7	30869	6.61	1.2264993275909
7	31426	6.71	0.92305383931647
7	31983	6.81	0.58908101929403
7	32540	6.91	0.23235621605629
7	33105	7.01	-0.13919559804423
7	33662	7.11	-0.51762846559318
7	34219	7.21	-0.89509993922417
7	34776	7.31	-1.2639902882471
7	35333	7.41	-1.5
7	35890	7.51	-1.5
7	36447	7.61	-1.5
7	37004	7.71	-1.5
7	37561	7.81	-1.5
7	38118	7.91	-1.5
7	38683	8.01	-1.5
7	39240	8.11	-1.5
7	39797	8.21	-1.5
7	40354	8.31	-1.5
7	40911	8.41	-1.5
7	41468	8.51	-1.5
7	42025	8.61	-1.5
7	42582	8.71	-1.5
7	43139	8.81	-1.5
7	43696	8.91	-1.5
7	44261	9.01	-1.5
7	44818	9.11	-1.5
7	45375	9.21	-1.5
7	45932	9.31	-1.5
7	46489	9.41	-1.5
7	47046	9.51	-1.1784535904988
7	47603	9.61	-0.73985166426131
7	48160	9.71	-0.29046662065306
7	48717	9.81	0.15868205664034
7	49274	9.91	0.59737147685681
7	49839	10.01	1.0162504341391
7	50396	10.11	1.4069035498462
7	50953	10.21	1.5
7	51510	10.31	1.5
7	52067	10.41	1.5
7	52624	10.51	1.5
7	53181	10.61	1.5
7	53738	10.71	1.5
7	54295	10.81	1.5
7	54852	10.91	1.5
7	55417	11.01	1.5
7	55974	11.11	1.5
7	56531	11.21	1.5
7	57088	11.31	1.5
7	57645	11.41	1.5
7	58202	11.51	1.5
7	58759	11.61	1.5
7	59316	11.71	1.5
7	59873	11.81	1.5
7	60430	11.91	1.1420569523224
7	60995	12.01	0.73271074172757
7	61552	12.11	0.30763491701868
7	62109	12.21	-0.12290183401692
7	62666	12.31	-0.54917422866109
7	63223	12.41	-0.96209331717302
7	63780	12.51	-1.3532900275371
7	64337	12.61	-1.5
7	64894	12.71	-1.5
7	65451	12.81	-1.5
7	66008	12.91	-1.5
7	66573	13.01	-1.5
7	67130	13.11	-1.5
7	67687	13.21	-1.5
7	68244	13.31	-1.5
7	68801	13.41	-1.5
7	69358	13.51	-1.5
7	69915	13.61	-1.5
7	70472	13.71	-1.5
7	71029	13.81	-1.5
7	71586	13.91	-1.5
7	72151	14.01	-1.5
7	72708	14.11	-1.5
7	73265	14.21	-1.5
7	73822	14.31	-1.5
7	74379	14.41	-1.3008305793183
7	74936	14.51	-0.88835736021285
7	75493	14.61	-0.45792464374985
7	76050	14.71	-0.020297800482021
7	76607	14.81	0.4143593475729
7	77164	14.91	0.8365748748462
7	77729	15.01	1.2376491838941
7	78286	15.11	1.5
7	78843	15.21	1.5
7	79400	15.31	1.5
7	79957	15.41	1.5
7	80514	15.51	1.5
7	81071	15.61	1.5
7	81628	15.71	1.5
7	82185	15.81	1.5
7	82742	15.91	1.5
7	83307	16.01	1.5
7	83864	16.11	1.5
7	84421	16.21	1.5
7	84978	16.31	1.5
7	85535	16.41	1.5
7	86092	16.51	1.5
7	86649	16.61	1.5
7	87206	16.71	1.5
7	87763	16.81	1.5
7	88320	16.91	1.2451238477388
7	88885	17.01	0.83347870135435
7	89442	17.11	0.40470958876969
7	89999	17.21	-0.030598062218257
7	90556	17.31	-0.46243980386594
7	91113	17.41	-0.8814833530456
7	91670	17.51	-1.2791500631716
7	92227	17.61	-1.5
7	92784	17.71	-1.5
7	93341	17.81	-1.5
7	93898	17.91	-1.5
7	94463	18.01	-1.5
7	95020	18.11	-1.5
7	95577	18.21	-1.5
7	96134	18.31	-1.5
7	96691	18.41	-1.5
7	97248	18.51	-1.5
7	97805	18.61	-1.5
7	98362	18.71	-1.5
7	98919	18.81	-1.5
7	99476	18.91	-1.5
7	100041	19.01	-1.5
7	100598	19.11	-1.5
7	101155	19.21	-1.5
7	101712	19.31	-1.5
7	102269	19.41	-1.2657245815134
7	102826	19.51	-0.85377693481579
7	103383	19.61	-0.42439560038158
7	103940	19.71	0.011767371267542
7	104497	19.81	0.44464851836336
7	105054	19.91	0.86486384400473
7	105619	20.01	1.2637899041122
7	106176	20.11	1.5
7	106733	20.21	1.5
7	107290	20.31	1.5
7	107847	20.41	1.5
7	108404	20.51	1.5
7	108961	20.61	1.5
7	109518	20.71	1.5
7	110075	20.81	1.5
7	110632	20.91	1.5
7	111197	21.01	1.5
7	111754	21.11	1.5
7	112311	21.21	1.5
7	112868	21.31	1.5
7	113425	21.41	1.5
7	113982	21.51	1.5
7	114539	21.61	1.5
7	115096	21.71	1.5
7	115653	21.81	1.5
7	116210	21.91	1.2580915517758
7	116775	22.01	0.84625491634779
7	117332	22.11	0.41709956367461
7	117889	22.21	-0.018747163543122
7	118446	22.31	-0.45124369149455
7	119003	22.41	-0.8710252053863
7	119560	22.51	-1.26948487946
7	120117	22.61	-1.5
7	120674	22.71	-1.5
7	121231	22.81	-1.5
7	121788	22.91	-1.5
7	122353	23.01	-1.5
7	122910	23.11	-1.5
7	123467	23.21	-1.5
7	124024	23.31	-1.5
7	124581	23.41	-1.5
7	125138	23.51	-1.5
7	125695	23.61	-1.5
7	126252	23.71	-1.5
7	126809	23.81	-1.5
7	127366	23.91	-1.5
7	127931	24.01	-1.5
7	128488	24.11	-1.5
7	129045	24.21	-1.5
7	129602	24.31	-1.5
7	130159	24.41	-1.260923965112
7	130716	24.51	-0.84904615684565
7	131273	24.61	-0.41980696481147
7	131830	24.71	0.01615709944571
7	132387	24.81	0.44879633965971
7	132944	24.91	0.86873882266827
7	133509	25.01	1.2673715557189
7	134066	25.11	1.5
7	134623	25.21	1.5
7	135180	25.31	1.5
7	135737	25.41	1.5
7	136294	25.51	1.5
7	136851	25.61	1.5
7	137408	25.71	1.5
7	137965	25.81	1.5
7	138522	25.91	1.5
7	139087	26.01	1.5
7	139644	26.11	1.5
7	140201	26.21	1.5
7	140758	26.31	1.5
7	141315	26.41	1.5
7	141872	26.51	1.5
7	142429	26.61	1.5
7	142986	26.71	1.5
7	143543	26.81	1.5
7	144100	26.91	1.259872851863
7	144665	27.01	0.84801032251393
7	145222	27.11	0.41880224309103
7	145779	27.21	-0.017118277442348
7	146336	27.31	-0.44970455708455
7	146893	27.41	-0.86958730431938
7	147450	27.51	-1.2681558149833
7	148007	27.61	-1.5
7	148564	27.71	-1.5
7	149121	27.81	-1.5
7	149678	27.91	-1.5
7	150243	28.01	-1.5
7	150800	28.11	-1.5
7	151357	28.21	-1.5
7	151914	28.31	-1.5
7	152471	28.41	-1.5
7	153028	28.51	-1.5
7	153585	28.61	-1.5
7	154142	28.71	-1.5
7	154699	28.81	-1.5
7	155256	28.91	-1.5
7	155821	29.01	-1.5
7	156378	29.11	-1.5
7	156935	29.21	-1.5
7	157492	29.31	-1.5
7	158049	29.41	-1.2602629232527
7	158606	29.51	-0.84839472385746
7	159163	29.61	-0.41917509845393
7	159720	29.71	0.016761581285863
7	160277	29.81	0.44936751475712
7	160834	29.91	0.86927243012053
7	161399	30.01	1.2678647739099
7	161956	30.11	1.5
7	162513	30.21	1.5
7	163070	30.31	1.5
7	163627	30.41	1.5
7	164184	30.51	1.5
7	164741	30.61	1.5
7	165298	30.71	1.5
7	165855	30.81	1.5
7	166412	30.91	1.5
7	166977	31.01	1.5
7	167534	31.11	1.5
7	168091	31.21	1.5
7	168648	31.31	1.5
7	169205	31.41	1.5
7	169762	31.51	1.5
7	170319	31.61	1.5
7	170876	31.71	1.5
7	171433	31.81	1.5
7	171990	31.91	1.2601181665191
7	172555	32.01	0.84825207129591
7	173112	32.11	0.4190367306424
7	173669	32.21	-0.01689395236456
7	174226	32.31	-0.44949259223739
7	174783	32.41	-0.86938928093775
7	175340	32.51	-1.2679727801784
7	175897	32.61	-1.5
7	176454	32.71	-1.5
7	177011	32.81	-1.5
7	177568	32.91	-1.5
7	178133	33.01	-1.5
7	178690	33.11	-1.5
7	179247	33.21	-1.5
7	179804	33.31	-1.5
7	180361	33.41	-1.5
7	180918	33.51	-1.5
7	181475	33.61	-1.5
7	182032	33.71	-1.5
7	182589	33.81	-1.5
7	183146	33.91	-1.5
7	183711	34.01	-1.5
7	184268	34.11	-1.5
7	184825	34.21	-1.5
7	185382	34.31	-1.5
7	185939	34.41	-1.2601718862043
7	186496	34.51	-0.8483050101162
7	187053	34.61	-0.4190880793783
7	187610	34.71	0.016844829035321
7	188167	34.81	0.44944617558577
7	188724	34.91	0.86934591722702
7	189289	35.01	1.2679326987079
7	189846	35.11	1.5
7	190403	35.21	1.5
7	190960	35.31	1.5
7	191517	35.41	1.5
7	192074	35.51	1.5
7	192631	35.61	1.5
7	193188	35.71	1.5
6	232	1.11	-6.1957727837125e-08
6	788	1.21	-1.257166815094e-07
6	1344	1.31	-1.7576642363792e-07
6	1900	1.41	-2.1367210223389e-07
6	2456	1.51	-2.40935627005e-07
6	3012	1.61	-2.5897985977963e-07
6	3568	1.71	-2.6913706818732e-07
6	4124	1.81	-2.7264253077419e-07
6	4680	1.91	-2.70628319754e-07
6	5244	2.01	-2.6412187992264e-07
6	5800	2.11	-2.540470944723e-07
6	6356	2.21	-2.4122570607688e-07
6	6912	2.31	-2.2638122487706e-07
6	7468	2.41	-2.1014301410105e-07
6	8024	2.51	-1.9305321785623e-07
6	8580	2.61	-1.7557066911422e-07
6	9136	2.71	-1.5808012676644e-07
6	9692	2.81	-1.408965388805e-07
6	10248	2.91	-1.2427268103465e-07
6	10812	3.01	-1.0840643938081e-07
6	11368	3.11	-9.3446494986438e-08
6	11924	3.21	-7.9497652905047e-08
6	12480	3.31	-6.662919105338e-08
6	13036	3.41	-5.487734711096e-08
6	13592	3.51	-4.4252601583139e-08
6	14148	3.61	-3.474287524341e-08
6	14704	3.71	-2.631832529687e-08
6	15260	3.81	-1.8935253365271e-08
6	15816	3.91	-1.2538947657958e-08
6	16380	4.01	-7.0667027785021e-09
6	16936	4.11	-2.4508395313205e-09
6	17492	4.21	1.3796963571622e-09
6	18048	4.31	4.4970249746257e-09
6	18604	4.41	6.9737993158014e-09
6	19160	4.51	8.8805407472137e-09
6	19716	4.61	1.0285283735811e-08
6	20272	4.71	1.1253575848968e-08
6	20828	4.81	1.1845813219225e-08
6	21384	4.91	1.2119549808176e-08
6	21949	5.01	1.2126655235534e-08
6	22506	5.11	0.0068264407582674
6	23063	5.21	0.074594825204244
6	23620	5.31	0.19005133580965
6	24177	5.41	0.34050271604578
6	24734	5.51	0.51301637992296
6	25291	5.61	0.69025457770344
6	25848	5.71	0.83572671948744
6	26405	5.81	0.95506454367928
6	26962	5.91	1.0529631248657
6	27527	6.01	1.1332740595019
6	28084	6.11	1.1991569981921
6	28641	6.21	1.2532039549377
6	29198	6.31	1.2975412840174
6	29755	6.41	1.333913336549
6	30312	6.51	1.3635927235564
6	30869	6.61	1.3702053601566
6	31426	6.71	1.3272611912161
6	31983	6.81	1.2373810907324
6	32540	6.91	1.10404337413
6	33105	7.01	0.93147091874766
6	33662	7.11	0.72451590435048
6	34219	7.21	0.4885431822391
6	34776	7.31	0.22931329511646
6	35333	7.41	-0.044839399439311
6	35890	7.51	-0.30626147528494
6	36447	7.61	-0.52071863075458
6	37004	7.71	-0.69664819363986
6	37561	7.81	-0.84097171145086
6	38118	7.91	-0.95936726391912
6	38683	8.01	-1.0564928540992
6	39240	8.11	-1.1361696668779
6	39797	8.21	-1.2015324047802
6	40354	8.31	-1.2551526156937
6	40911	8.41	-1.2991398645553
6	41468	8.51	-1.3352247293753
6	42025	8.61	-1.3648268868815
6	42582	8.71	-1.3891109664646
6	43139	8.81	-1.4090323698644
6	43696	8.91	-1.4253748592747
6	44261	9.01	-1.4387813926779
6	44818	9.11	-1.4497794195627
6	45375	9.21	-1.4588016322197
6	45932	9.31	-1.4662029890339
6	46489	9.41	-1.472274679513
6	47046	9.51	-1.4696249147034
6	47603	9.61	-1.3967850639437
6	48160	9.71	-1.2587757641633
6	48717	9.81	-1.0660952218261
6	49274	9.91	-0.82923335021992
6	49839	10.01	-0.55852907837295
6	50396	10.11	-0.26404116072971
6	50953	10.21	0.039432698699926
6	51510	10.31	0.30182609752512
6	52067	10.41	0.51708007614977
6	52624	10.51	0.69366331155596
6	53181	10.61	0.83852306850822
6	53738	10.71	0.95735852384404
6	54295	10.81	1.0548449875937
6	54852	10.91	1.1348178423914
6	55417	11.01	1.2004234378608
6	55974	11.11	1.2542428765666
6	56531	11.21	1.2983935616091
6	57088	11.31	1.3346125010223
6	57645	11.41	1.364324646393
6	58202	11.51	1.3886989543336
6	58759	11.61	1.4086943764131
6	59316	11.71	1.4250975869215
6	59873	11.81	1.4385539327746
6	60430	11.91	1.4345627372796
6	60995	12.01	1.362344918871
6	61552	12.11	1.2299875654412
6	62109	12.21	1.0461448397713
6	62666	12.31	0.81967864248274
6	63223	12.41	0.55952045903922
6	63780	12.51	0.27454262948492
6	64337	12.61	-0.022341644884349
6	64894	12.71	-0.2878054805846
6	65451	12.81	-0.50557828687943
6	66008	12.91	-0.68422783828268
6	66573	13.01	-0.83078269404986
6	67130	13.11	-0.95100872081701
6	67687	13.21	-1.0496359374757
6	68244	13.31	-1.1305446069832
6	68801	13.41	-1.1969178964591
6	69358	13.51	-1.2513671116379
6	69915	13.61	-1.2960344327389
6	70472	13.71	-1.3326771936644
6	71029	13.81	-1.3627370202924
6	71586	13.91	-1.3873965479609
6	72151	14.01	-1.4076259495598
6	72708	14.11	-1.4242211047687
6	73265	14.21	-1.4378349121303
6	73822	14.31	-1.4490029758544
6	74379	14.41	-1.454259395185
6	74936	14.51	-1.4067454390036
6	75493	14.61	-1.2938574955303
6	76050	14.71	-1.124840905225
6	76607	14.81	-0.90912582142568
6	77164	14.91	-0.65618298375991
6	77729	15.01	-0.37539052553566
6	78286	15.11	-0.078063005087259
6	78843	15.21	0.20543869668082
6	79400	15.31	0.43800883573812
6	79957	15.41	0.62879735391554
6	80514	15.51	0.7853103904381
6	81071	15.61	0.91370559385755
6	81628	15.71	1.0190343806947
6	82185	15.81	1.1054406719046
6	82742	15.91	1.1763239259972
6	83307	16.01	1.2344728829815
6	83864	16.11	1.2821752809831
6	84421	16.21	1.3213078620836
6	84978	16.31	1.353410208459
6	85535	16.41	1.3797453137304
6	86092	16.51	1.4013492725669
6	86649	16.61	1.4190720434685
6	87206	16.71	1.433610888447
6	87763	16.81	1.4455378052071
6	88320	16.91	1.4502949065323
6	88885	17.01	1.3935559567521
6	89442	17.11	1.2733368701442
6	89999	17.21	1.0986742440538
6	90556	17.31	0.87879676591474
6	91113	17.41	0.62298329276036
6	91670	17.51	0.34043137853494
6	92227	17.61	0.043031849081565
6	92784	17.71	-0.23417644595263
6	93341	17.81	-0.4615837994951
6	93898	17.91	-0.648137035353
6	94463	18.01	-0.801175665225
6	95020	18.11	-0.92672064505575
6	95577	18.21	-1.0297112558181
6	96134	18.31	-1.1141994282598
6	96691	18.41	-1.1835091568821
6	97248	18.51	-1.2403672749222
6	97805	18.61	-1.2870107353907
6	98362	18.71	-1.325274618886
6	98919	18.81	-1.3566643306579
6	99476	18.91	-1.3824148273438
6	100041	19.01	-1.4035392035211
6	100598	19.11	-1.420868549604
6	101155	19.21	-1.4350846492013
6	101712	19.31	-1.4467468023362
6	102269	19.41	-1.451720194177
6	102826	19.51	-1.3984004323888
6	103383	19.61	-1.2808993810095
6	103940	19.71	-1.1083308503775
6	104497	19.81	-0.88999806036849
6	105054	19.91	-0.63525086466907
6	105619	20.01	-0.35335363991358
6	106176	20.11	-0.055983891307321
6	106733	20.21	0.22355126013291
6	107290	20.31	0.4528674463721
6	107847	20.41	0.6409865898874
6	108404	20.51	0.79530980944416
6	108961	20.61	0.92190860023873
6	109518	20.71	1.0257637030335
6	110075	20.81	1.1109610600444
6	110632	20.91	1.1808525670222
6	111197	21.01	1.2381879459472
6	111754	21.11	1.2852229265711
6	112311	21.21	1.3238079929604
6	112868	21.31	1.3554611865732
6	113425	21.41	1.3814278301394
6	113982	21.51	1.4027295220425
6	114539	21.61	1.4202043287794
6	115096	21.71	1.4345397567766
6	115653	21.81	1.4462998007621
6	116210	21.91	1.4512038299459
6	116775	22.01	1.3966149622043
6	117332	22.11	1.2781048258539
6	117889	22.21	1.1047586168255
6	118446	22.31	0.88585193073953
6	119003	22.41	0.63070830476128
6	119560	22.51	0.34856734381012
6	120117	22.61	0.0511856543703
6	120674	22.71	-0.22748748564663
6	121231	22.81	-0.45609652228009
6	121788	22.91	-0.6436355568189
6	122353	23.01	-0.79748288496297
6	122910	23.11	-0.92369127904615
6	123467	23.21	-1.0272261205623
6	124024	23.31	-1.1121607517778
6	124581	23.41	-1.1818367320961
6	125138	23.51	-1.2389953040925
6	125695	23.61	-1.2858852414526
6	126252	23.71	-1.3243513218477
6	126809	23.81	-1.3559069055024
6	127366	23.91	-1.3817934749051
6	127931	24.01	-1.4030294781042
6	128488	24.11	-1.4204503972245
6	129045	24.21	-1.4347416186069
6	129602	24.31	-1.4464653977715
6	130159	24.41	-1.4513952146874
6	130716	24.51	-1.3972773206753
6	131273	24.61	-1.2791416668554
6	131830	24.71	-1.1060840673016
6	132387	24.81	-0.88739036841616
6	132944	24.91	-0.63239387292562
6	133509	25.01	-0.35034337810913
6	134066	25.11	-0.052966136909482
6	134623	25.21	0.22602686982296
6	135180	25.31	0.45489830857282
6	135737	25.41	0.64265260424126
6	136294	25.51	0.79667652148707
6	136851	25.61	0.92302978013983
6	137408	25.71	1.026683461059
6	137965	25.81	1.1117155819768
6	138522	25.91	1.1814715378065
6	139087	26.01	1.2386957175778
6	139644	26.11	1.2856394761648
6	140201	26.21	1.3241497087115
6	140758	26.31	1.3557415125092
6	141315	26.41	1.3816577950445
6	141872	26.51	1.4029181733612
6	142429	26.61	1.4203590885678
6	142986	26.71	1.4346667137062
6	143543	26.81	1.4464039496636
6	144100	26.91	1.4513241957731
6	144665	27.01	1.3970315218257
6	145222	27.11	1.2787568961965
6	145779	27.21	1.105592192547
6	146336	27.31	0.88681945319422
6	146893	27.41	0.63176835684544
6	147450	27.51	0.34968428947462
6	148007	27.61	0.052305397195518
6	148564	27.71	-0.22656890652382
6	149121	27.81	-0.45534296745871
6	149678	27.91	-0.64301737940227
6	150243	28.01	-0.79697576416979
6	150800	28.11	-0.92327526336593
6	151357	28.21	-1.0268848428064
6	151914	28.31	-1.1118807851512
6	152471	28.41	-1.1816070619497
6	153028	28.51	-1.2388068945784
6	153585	28.61	-1.2857306800282
6	154142	28.71	-1.3242245276457
6	154699	28.81	-1.3558028900942
6	155256	28.91	-1.3817081460418
6	155821	29.01	-1.4029594787162
6	156378	29.11	-1.420392973346
6	156935	29.21	-1.4346945110265
6	157492	29.31	-1.446426753148
6	158049	29.41	-1.451350551031
6	158606	29.51	-1.3971227384756
6	159163	29.61	-1.2788996857301
6	159720	29.71	-1.1057747287552
6	160277	29.81	-0.8870313215759
6	160834	29.91	-0.6320004877848
6	161399	30.01	-0.34992887930123
6	161956	30.11	-0.052550599748891
6	162513	30.21	0.22636775502605
6	163070	30.31	0.45517795316936
6	163627	30.41	0.64288201021068
6	164184	30.51	0.79686471428388
6	164741	30.61	0.92318416378063
6	165298	30.71	1.0268101094166
6	165855	30.81	1.1118194777421
6	166412	30.91	1.1815567685211
6	166977	31.01	1.2387656364497
6	167534	31.11	1.2856968339927
6	168091	31.21	1.3241967621083
6	168648	31.31	1.3557801126831
6	169205	31.41	1.3816894606315
6	169762	31.51	1.4029441501719
6	170319	31.61	1.4203803986005
6	170876	31.71	1.4346841953552
6	171433	31.81	1.4464182907044
6	171990	31.91	1.4513407705126
6	172555	32.01	1.397088887688
6	173112	32.11	1.278846696081
6	173669	32.21	1.1057069889883
6	174226	32.31	0.88695269654568
6	174783	32.41	0.63191434325471
6	175340	32.51	0.34983811123848
6	175897	32.61	0.052459604300914
6	176454	32.71	-0.22644240298693
6	177011	32.81	-0.4552391904971
6	177568	32.91	-0.64293224614804
6	178133	33.01	-0.79690592524955
6	178690	33.11	-0.92321797112618
6	179247	33.21	-1.0268378432148
6	179804	33.31	-1.111842229116
6	180361	33.41	-1.1815754325719
6	180918	33.51	-1.2387809474721
6	181475	33.61	-1.2857093943635
6	182032	33.71	-1.3242070659869
6	182589	33.81	-1.3557885654523
6	183146	33.91	-1.3816963948463
6	183711	34.01	-1.4029498386432
6	184268	34.11	-1.4203850651285
6	184825	34.21	-1.4346880235333
6	185382	34.31	-1.446421431144
6	185939	34.41	-1.451344400094
6	186496	34.51	-1.397101449823
6	187053	34.61	-1.2788663607086
6	187610	34.71	-1.1057321274317
6	188167	34.81	-0.88698187454508
6	188724	34.91	-0.63194631176433
6	189289	35.01	-0.34987179555621
6	189846	35.11	-0.052493373002349
6	190403	35.21	0.22641470089031
6	190960	35.31	0.4552164651292
6	191517	35.41	0.64291360343098
6	192074	35.51	0.79689063172861
6	192631	35.61	0.92320542511199
6	193188	35.71	1.026827551113
5	232	1.11	36.55
5	788	1.21	36.55
5	1344	1.31	36.55
5	1900	1.41	36.55
5	2456	1.51	36.55
5	3012	1.61	36.55
5	3568	1.71	36.55
5	4124	1.81	36.55
5	4680	1.91	36.55
5	5244	2.01	36.55
5	5800	2.11	36.55
5	6356	2.21	36.55
5	6912	2.31	36.55
5	7468	2.41	36.55
5	8024	2.51	36.55
5	8580	2.61	36.55
5	9136	2.71	36.55
5	9692	2.81	36.55
5	10248	2.91	36.55
5	10812	3.01	36.55
5	11368	3.11	36.55
5	11924	3.21	36.55
5	12480	3.31	36.55
5	13036	3.41	36.55
5	13592	3.51	36.55
5	14148	3.61	36.55
5	14704	3.71	36.55
5	15260	3.81	36.55
5	15816	3.91	36.55
5	16380	4.01	36.55
5	16936	4.11	36.55
5	17492	4.21	36.55
5	18048	4.31	36.55
5	18604	4.41	36.55
5	19160	4.51	36.55
5	19716	4.61	36.55
5	20272	4.71	36.55
5	20828	4.81	36.55
5	21384	4.91	36.55
5	21949	5.01	36.55
5	22506	5.11	36.55
5	23063	5.21	36.55
5	23620	5.31	36.55
5	24177	5.41	36.55
5	24734	5.51	36.55
5	25291	5.61	36.55
5	25848	5.71	36.55
5	26405	5.81	36.55
5	26962	5.91	36.55
5	27527	6.01	36.55
5	28084	6.11	36.55
5	28641	6.21	36.55
5	29198	6.31	36.55
5	29755	6.41	36.55
5	30312	6.51	36.55
5	30869	6.61	36.55
5	31426	6.71	36.55
5	31983	6.81	36.55
5	32540	6.91	36.55
5	33105	7.01	36.55
5	33662	7.11	36.55
5	34219	7.21	36.55
5	34776	7.31	36.55
5	35333	7.41	36.55
5	35890	7.51	36.55
5	36447	7.61	36.55
5	37004	7.71	36.55
5	37561	7.81	36.55
5	38118	7.91	36.55
5	38683	8.01	36.55
5	39240	8.11	36.55
5	39797	8.21	36.55
5	40354	8.31	36.55
5	40911	8.41	36.55
5	41468	8.51	36.55
5	42025	8.61	36.55
5	42582	8.71	36.55
5	43139	8.81	36.55
5	43696	8.91	36.55
5	44261	9.01	36.55
5	44818	9.11	36.55
5	45375	9.21	36.55
5	45932	9.31	36.55
5	46489	9.41	36.55
5	47046	9.51	36.55
5	47603	9.61	36.55
5	48160	9.71	36.55
5	48717	9.81	36.55
5	49274	9.91	36.55
5	49839	10.01	36.55
5	50396	10.11	36.55
5	50953	10.21	36.55
5	51510	10.31	36.55
5	52067	10.41	36.55
5	52624	10.51	36.55
5	53181	10.61	36.55
5	53738	10.71	36.55
5	54295	10.81	36.55
5	54852	10.91	36.55
5	55417	11.01	36.55
5	55974	11.11	36.55
5	56531	11.21	36.55
5	57088	11.31	36.55
5	57645	11.41	36.55
5	58202	11.51	36.55
5	58759	11.61	36.55
5	59316	11.71	36.55
5	59873	11.81	36.55
5	60430	11.91	36.55
5	60995	12.01	36.55
5	61552	12.11	36.55
5	62109	12.21	36.55
5	62666	12.31	36.55
5	63223	12.41	36.55
5	63780	12.51	36.55
5	64337	12.61	36.55
5	64894	12.71	36.55
5	65451	12.81	36.55
5	66008	12.91	36.55
5	66573	13.01	36.55
5	67130	13.11	36.55
5	67687	13.21	36.55
5	68244	13.31	36.55
5	68801	13.41	36.55
5	69358	13.51	36.55
5	69915	13.61	36.55
5	70472	13.71	36.55
5	71029	13.81	36.55
5	71586	13.91	36.55
5	72151	14.01	36.55
5	72708	14.11	36.55
5	73265	14.21	36.55
5	73822	14.31	36.55
5	74379	14.41	36.55
5	74936	14.51	36.55
5	75493	14.61	36.55
5	76050	14.71	36.55
5	76607	14.81	36.55
5	77164	14.91	36.55
5	77729	15.01	36.55
5	78286	15.11	36.55
5	78843	15.21	36.55
5	79400	15.31	36.55
5	79957	15.41	36.55
5	80514	15.51	36.55
5	81071	15.61	36.55
5	81628	15.71	36.55
5	82185	15.81	36.55
5	82742	15.91	36.55
5	83307	16.01	36.55
5	83864	16.11	36.55
5	84421	16.21	36.55
5	84978	16.31	36.55
5	85535	16.41	36.55
5	86092	16.51	36.55
5	86649	16.61	36.55
5	87206	16.71	36.55
5	87763	16.81	36.55
5	88320	16.91	36.55
5	88885	17.01	36.55
5	89442	17.11	36.55
5	89999	17.21	36.55
5	90556	17.31	36.55
5	91113	17.41	36.55
5	91670	17.51	36.55
5	92227	17.61	36.55
5	92784	17.71	36.55
5	93341	17.81	36.55
5	93898	17.91	36.55
5	94463	18.01	36.55
5	95020	18.11	36.55
5	95577	18.21	36.55
5	96134	18.31	36.55
5	96691	18.41	36.55
5	97248	18.51	36.55
5	97805	18.61	36.55
5	98362	18.71	36.55
5	98919	18.81	36.55
5	99476	18.91	36.55
5	100041	19.01	36.55
5	100598	19.11	36.55
5	101155	19.21	36.55
5	101712	19.31	36.55
5	102269	19.41	36.55
5	102826	19.51	36.55
5	103383	19.61	36.55
5	103940	19.71	36.55
5	104497	19.81	36.55
5	105054	19.91	36.55
5	105619	20.01	36.55
5	106176	20.11	36.55
5	106733	20.21	36.55
5	107290	20.31	36.55
5	107847	20.41	36.55
5	108404	20.51	36.55
5	108961	20.61	36.55
5	109518	20.71	36.55
5	110075	20.81	36.55
5	110632	20.91	36.55
5	111197	21.01	36.55
5	111754	21.11	36.55
5	112311	21.21	36.55
5	112868	21.31	36.55
5	113425	21.41	36.55
5	113982	21.51	36.55
5	114539	21.61	36.55
5	115096	21.71	36.55
5	115653	21.81	36.55
5	116210	21.91	36.55
5	116775	22.01	36.55
5	117332	22.11	36.55
5	117889	22.21	36.55
5	118446	22.31	36.55
5	119003	22.41	36.55
5	119560	22.51	36.55
5	120117	22.61	36.55
5	120674	22.71	36.55
5	121231	22.81	36.55
5	121788	22.91	36.55
5	122353	23.01	36.55
5	122910	23.11	36.55
5	123467	23.21	36.55
5	124024	23.31	36.55
5	124581	23.41	36.55
5	125138	23.51	36.55
5	125695	23.61	36.55
5	126252	23.71	36.55
5	126809	23.81	36.55
5	127366	23.91	36.55
5	127931	24.01	36.55
5	128488	24.11	36.55
5	129045	24.21	36.55
5	129602	24.31	36.55
5	130159	24.41	36.55
5	130716	24.51	36.55
5	131273	24.61	36.55
5	131830	24.71	36.55
5	132387	24.81	36.55
5	132944	24.91	36.55
5	133509	25.01	36.55
5	134066	25.11	36.55
5	134623	25.21	36.55
5	135180	25.31	36.55
5	135737	25.41	36.55
5	136294	25.51	36.55
5	136851	25.61	36.55
5	137408	25.71	36.55
5	137965	25.81	36.55
5	138522	25.91	36.55
5	139087	26.01	36.55
5	139644	26.11	36.55
5	140201	26.21	36.55
5	140758	26.31	36.55
5	141315	26.41	36.55
5	141872	26.51	36.55
5	142429	26.61	36.55
5	142986	26.71	36.55
5	143543	26.81	36.55
5	144100	26.91	36.55
5	144665	27.01	36.55
5	145222	27.11	36.55
5	145779	27.21	36.55
5	146336	27.31	36.55
5	146893	27.41	36.55
5	147450	27.51	36.55
5	148007	27.61	36.55
5	148564	27.71	36.55
5	149121	27.81	36.55
5	149678	27.91	36.55
5	150243	28.01	36.55
5	150800	28.11	36.55
5	151357	28.21	36.55
5	151914	28.31	36.55
5	152471	28.41	36.55
5	153028	28.51	36.55
5	153585	28.61	36.55
5	154142	28.71	36.55
5	154699	28.81	36.55
5	155256	28.91	36.55
5	155821	29.01	36.55
5	156378	29.11	36.55
5	156935	29.21	36.55
5	157492	29.31	36.55
5	158049	29.41	36.55
5	158606	29.51	36.55
5	159163	29.61	36.55
5	159720	29.71	36.55
5	160277	29.81	36.55
5	160834	29.91	36.55
5	161399	30.01	36.55
5	161956	30.11	36.55
5	162513	30.21	36.55
5	163070	30.31	36.55
5	163627	30.41	36.55
5	164184	30.51	36.55
5	164741	30.61	36.55
5	165298	30.71	36.55
5	165855	30.81	36.55
5	166412	30.91	36.55
5	166977	31.01	36.55
5	167534	31.11	36.55
5	168091	31.21	36.55
5	168648	31.31	36.55
5	169205	31.41	36.55
5	169762	31.51	36.55
5	170319	31.61	36.55
5	170876	31.71	36.55
5	171433	31.81	36.55
5	171990	31.91	36.55
5	172555	32.01	36.55
5	173112	32.11	36.55
5	173669	32.21	36.55
5	174226	32.31	36.55
5	174783	32.41	36.55
5	175340	32.51	36.55
5	175897	32.61	36.55
5	176454	32.71	36.55
5	177011	32.81	36.55
5	177568	32.91	36.55
5	178133	33.01	36.55
5	178690	33.11	36.55
5	179247	33.21	36.55
5	179804	33.31	36.55
5	180361	33.41	36.55
5	180918	33.51	36.55
5	181475	33.61	36.55
5	182032	33.71	36.55
5	182589	33.81	36.55
5	183146	33.91	36.55
5	183711	34.01	36.55
5	184268	34.11	36.55
5	184825	34.21	36.55
5	185382	34.31	36.55
5	185939	34.41	36.55
5	186496	34.51	36.55
5	187053	34.61	36.55
5	187610	34.71	36.55
5	188167	34.81	36.55
5	188724	34.91	36.55
5	189289	35.01	36.55
5	189846	35.11	36.55
5	190403	35.21	36.55
5	190960	35.31	36.55
5	191517	35.41	36.55
5	192074	35.51	36.55
5	192631	35.61	36.55
5	193188	35.71	36.55
4	232	1.11	215.66408119188
4	788	1.21	217.05297012228
4	1344	1.31	218.44185905131
4	1900	1.41	219.83074797852
4	2456	1.51	221.21963690353
4	3012	1.61	222.60852582609
4	3568	1.71	223.99741474604
4	4124	1.81	225.3863036633
4	4680	1.91	226.77519257783
4	5244	2.01	228.16408148967
4	5800	2.11	229.55297039889
4	6356	2.21	230.94185930559
4	6912	2.31	232.33074820991
4	7468	2.41	233.719637112
4	8024	2.51	235.10852601202
4	8580	2.61	236.49741491015
4	9136	2.71	237.88630380655
4	9692	2.81	239.27519270141
4	10248	2.91	240.6640815949
4	10812	3.01	242.05297048717
4	11368	3.11	243.44185937839
4	11924	3.21	244.8307482687
4	12480	3.31	246.21963715824
4	13036	3.41	247.60852604714
4	13592	3.51	248.99741493551
4	14148	3.61	250.38630382346
4	14704	3.71	251.77519271108
4	15260	3.81	253.16408159845
4	15816	3.91	254.55297048565
4	16380	4.01	255.94185937273
4	16936	4.11	257.33074825974
4	17492	4.21	258.71963714675
4	18048	4.31	260.10852603377
4	18604	4.41	261.49741492084
4	19160	4.51	262.88630380798
4	19716	4.61	264.27519269522
4	20272	4.71	265.66408158256
4	20828	4.81	267.05297047002
4	21384	4.91	268.44185935759
4	21949	5.01	269.83074824529
4	22506	5.11	271.21963849839
4	23063	5.21	272.60875525332
4	23620	5.31	273.99887210174
4	24177	5.41	275.3912136713
4	24734	5.51	276.78732994572
4	25291	5.61	278.1889557874
4	25848	5.71	279.59777668084
4	26405	5.81	281.01519466648
4	26962	5.91	282.44236003758
4	27527	6.01	283.88021643527
4	28084	6.11	285.32953797396
4	28641	6.21	286.79095969708
4	29198	6.31	288.26500256141
4	29755	6.41	289.75209393299
4	30312	6.51	291.25258436913
4	30869	6.61	292.76673161975
4	31426	6.71	294.29448925191
4	31983	6.81	295.83533074905
4	32540	6.91	297.38826733486
4	33105	7.01	298.95188429652
4	33662	7.11	300.52438451953
4	34219	7.21	302.10363807795
4	34776	7.31	303.68723671243
4	35333	7.41	305.272552486
4	35890	7.51	306.85687247143
4	36447	7.61	308.43769886234
4	37004	7.71	310.01296451344
4	37561	7.81	311.58097364559
4	38118	7.91	313.14033512924
4	38683	8.01	314.68990775365
4	39240	8.11	316.22875532853
4	39797	8.21	317.75610985175
4	40354	8.31	319.27134129409
4	40911	8.41	320.77393281212
4	41468	8.51	322.26346041425
4	42025	8.61	323.73957627967
4	42582	8.71	325.20199507418
4	43139	8.81	326.65048272435
4	43696	8.91	328.08484720846
4	44261	9.01	329.50493100178
4	44818	9.11	330.9106048792
4	45375	9.21	332.30176283111
4	45932	9.31	333.67831789269
4	46489	9.41	335.04019872253
4	47046	9.51	336.38734905862
4	47603	9.61	337.71996420132
4	48160	9.71	339.03890547195
4	48717	9.81	340.34566463293
4	49274	9.91	341.6422587973
4	49839	10.01	342.93112580455
4	50396	10.11	344.21502137154
4	50953	10.21	345.49691825751
4	51510	10.31	346.77974467638
4	52067	10.41	348.06602193731
4	52624	10.51	349.35782486615
4	53181	10.61	350.65685554276
4	53738	10.71	351.96451026549
4	54295	10.81	353.28193448527
4	54852	10.91	354.61006787086
4	55417	11.01	355.94968127791
4	55974	11.11	357.30140707656
4	56531	11.21	358.66576403055
4	57088	11.31	360.04317770687
4	57645	11.41	361.43399721865
4	58202	11.51	362.83850896026
4	58759	11.61	364.25694787484
4	59316	11.71	365.68950669757
4	59873	11.81	367.13634353847
4	60430	11.91	368.59757330338
4	60995	12.01	370.07299096255
4	61552	12.11	371.56175119998
4	62109	12.21	373.06242491436
4	62666	12.31	374.57308621505
4	63223	12.41	376.09140121331
4	63780	12.51	377.61471724553
4	64337	12.61	379.14015210353
4	64894	12.71	380.66481703816
4	65451	12.81	382.18616627499
4	66008	12.91	383.70210070927
4	66573	13.01	385.21089834399
4	67130	13.11	386.7111465418
4	67687	13.21	388.2016864481
4	68244	13.31	389.68156739845
4	68801	13.41	391.1500095169
4	69358	13.51	392.60637303356
4	69915	13.61	394.05013311427
4	70472	13.71	395.48085921222
4	71029	13.81	396.89819812907
4	71586	13.91	398.30186011917
4	72151	14.01	399.69160749015
4	72708	14.11	401.0672452515
4	73265	14.21	402.42861344307
4	73822	14.31	403.77558084184
4	74379	14.41	405.10804058026
4	74936	14.51	406.42605919618
4	75493	14.61	407.73025199563
4	76050	14.71	409.02186271323
4	76607	14.81	410.30267716632
4	77164	14.91	411.5749288391
4	77729	15.01	412.84120433367
4	78286	15.11	414.1043495684
4	78843	15.21	415.36730741705
4	79400	15.31	416.63278703283
4	79957	15.41	417.9030301515
4	80514	15.51	419.17987577716
4	81071	15.61	420.46483253371
4	81628	15.71	421.7591380182
4	82185	15.81	423.06380749126
4	82742	15.91	424.37967382023
4	83307	16.01	425.7074202464
4	83864	16.11	427.04760726563
4	84421	16.21	428.40069467971
4	84978	16.31	429.76705968628
4	85535	16.41	431.14701171879
4	86092	16.51	432.54080462042
4	86649	16.61	433.948646631
4	87206	16.71	435.37070857974
4	87763	16.81	436.80713060606
4	88320	16.91	438.25802665865
4	88885	17.01	439.72330023351
4	89442	17.11	441.2022529604
4	89999	17.21	442.69357117806
4	90556	17.31	444.19541558966
4	91113	17.41	445.70551368316
4	91670	17.51	447.22125238398
4	92227	17.61	448.73977022472
4	92784	17.71	450.25814156028
4	93341	17.81	451.77371412652
4	93898	17.91	453.28429595158
4	94463	18.01	454.78808885511
4	95020	18.11	456.2836177029
4	95577	18.21	457.76967237112
4	96134	18.31	459.24526013672
4	96691	18.41	460.70956662105
4	97248	18.51	462.16192374998
4	97805	18.61	463.60178347002
4	98362	18.71	465.02869618641
4	98919	18.81	466.44229307488
4	99476	18.91	467.84227157104
4	100041	19.01	469.22838346673
4	100598	19.11	470.60042514478
4	101155	19.21	471.95822956823
4	101712	19.31	473.30165970856
4	102269	19.41	474.6306040734
4	102826	19.51	475.94514782866
4	103383	19.61	477.24595851132
4	103940	19.71	478.53432385555
4	104497	19.81	479.81206332107
4	105054	19.91	481.08143493453
4	105619	20.01	482.34504193516
4	106176	20.11	483.60574000122
4	106733	20.21	484.86646112468
4	107290	20.31	486.12987860167
4	107847	20.41	487.39820280318
4	108404	20.51	488.67324700333
4	108961	20.61	489.95649871843
4	109518	20.71	491.24917822997
4	110075	20.81	492.5522865938
4	110632	20.91	493.86664502436
4	111197	21.01	495.19292720355
4	111754	21.11	496.53168578516
4	112311	21.21	497.88337413778
4	112868	21.31	499.24836418157
4	113425	21.41	500.6269610206
4	113982	21.51	502.01941494648
4	114539	21.61	503.42593128548
4	115096	21.71	504.8466784767
4	115653	21.81	506.28179469883
4	116210	21.91	507.73139235789
4	116775	22.01	509.19538216166
4	117332	22.11	510.67308515043
4	117889	22.21	512.16320396397
4	118446	22.31	513.6639117752
4	119003	22.41	515.17294517519
4	119560	22.51	516.68769726737
4	120117	22.61	518.20531021723
4	120674	22.71	519.72285437748
4	121231	22.81	521.23766424305
4	121788	22.91	522.74753625913
4	122353	23.01	524.25066274329
4	122910	23.11	525.74556076628
4	123467	23.21	527.23101380966
4	124024	23.31	528.70602390456
4	124581	23.41	530.16977236893
4	125138	23.51	531.62158759833
4	125695	23.61	533.06091864323
4	126252	23.71	534.48731353308
4	126809	23.81	535.90040149463
4	127366	23.91	537.29987836467
4	127931	24.01	538.68549462344
4	128488	24.11	540.0570455778
4	129045	24.21	541.41436330811
4	129602	24.31	542.75731006176
4	130159	24.41	544.08577377119
4	130716	24.51	545.39984219698
4	131273	24.61	546.70019005976
4	131830	24.71	547.98811114741
4	132387	24.81	549.26542955285
4	132944	24.91	550.53440668749
4	133509	25.01	551.79764809053
4	134066	25.11	553.05801079611
4	134623	25.21	554.31842532147
4	135180	25.31	555.58156006266
4	135737	25.41	556.84962110381
4	136294	25.51	558.12441820224
4	136851	25.61	559.40743598931
4	137408	25.71	560.69989237984
4	137965	25.81	562.00278648817
4	138522	25.91	563.31693793605
4	139087	26.01	564.6430190988
4	139644	26.11	565.98158155836
4	140201	26.21	567.33307780404
4	140758	26.31	568.69787903467
4	141315	26.41	570.0762897626
4	141872	26.51	571.46855979399
4	142429	26.61	572.87489405692
4	142986	26.71	574.29546066378
4	143543	26.81	575.7303975253
4	144100	26.91	577.17981683461
4	144665	27.01	578.64363026275
4	145222	27.11	580.12116151593
4	145779	27.21	581.61111548057
4	146336	27.31	583.11166704911
4	146893	27.41	584.62055406882
4	147450	27.51	586.13517049679
4	148007	27.61	587.65265900185
4	148564	27.71	589.1700893896
4	149121	27.81	590.68479433684
4	149678	27.91	592.19456869808
4	150243	28.01	593.69760348598
4	150800	28.11	595.19241470084
4	151357	28.21	596.67778494604
4	151914	28.31	598.15271553234
4	152471	28.41	599.61638718669
4	153028	28.51	601.06812781986
4	153585	28.61	602.50738608459
4	154142	28.71	603.93370968409
4	154699	28.81	605.34672757745
4	155256	28.91	606.74613538191
4	155821	29.01	608.13168339757
4	156378	29.11	609.50316678355
4	156935	29.21	610.86041749899
4	157492	29.31	612.20329769183
4	158049	29.41	613.53169521555
4	158606	29.51	614.84569818817
4	159163	29.61	616.14598231968
4	159720	29.71	617.43384223169
4	160277	29.81	618.71110265523
4	160834	29.91	619.98002546792
4	161399	30.01	621.24321652573
4	161956	30.11	622.50353304961
4	162513	30.21	623.76390535377
4	163070	30.31	625.02700115955
4	163627	30.41	626.29502596076
4	164184	30.51	627.56978903049
4	164741	30.61	628.85277460286
4	165298	30.71	630.14520026677
4	165855	30.81	631.44806486925
4	166412	30.91	632.76218781273
4	166977	31.01	634.0882412926
4	167534	31.11	635.42677674324
4	168091	31.21	636.77824653286
4	168648	31.31	638.14302176099
4	169205	31.41	639.52140685847
4	169762	31.51	640.91365156464
4	170319	31.61	642.31996075274
4	170876	31.71	643.74050249018
4	171433	31.81	645.17541465078
4	171990	31.91	646.62480939837
4	172555	32.01	648.08859853664
4	173112	32.11	649.56610613895
4	173669	32.21	651.05603740113
4	174226	32.31	652.5565674524
4	174783	32.41	654.06543431306
4	175340	32.51	655.58003205776
4	175897	32.61	657.09750342465
4	176454	32.71	658.61491814399
4	177011	32.81	660.12960864217
4	177568	32.91	661.63936955466
4	178133	33.01	663.1423917144
4	178690	33.11	664.63719097428
4	179247	33.21	666.12254981674
4	179804	33.31	667.59746945332
4	180361	33.41	669.06113052959
4	180918	33.51	670.51286088956
4	181475	33.61	671.9521091312
4	182032	33.71	673.37842291277
4	182589	33.81	674.79143115652
4	183146	33.91	676.19082944944
4	183711	34.01	677.57636806683
4	184268	34.11	678.94784214747
4	184825	34.21	680.30508363378
4	185382	34.31	681.64795466004
4	185939	34.41	682.97634306882
4	186496	34.51	684.29033702739
4	187053	34.61	685.59061238199
4	187610	34.71	686.87846386904
4	188167	34.81	688.15571630746
4	188724	34.91	689.42463163905
4	189289	35.01	690.68781576345
4	189846	35.11	691.9481259273
4	190403	35.21	693.20849241686
4	190960	35.31	694.47158286055
4	191517	35.41	695.73960267088
4	192074	35.51	697.01436105427
4	192631	35.61	698.2973421901
4	193188	35.71	699.58976362242
3	232	1.11	13.888889309806
3	788	1.21	13.888889299984
3	1344	1.31	13.888889284553
3	1900	1.41	13.888889264797
3	2456	1.51	13.888889241849
3	3012	1.61	13.888889216692
3	3568	1.71	13.888889190176
3	4124	1.81	13.888889163019
3	4680	1.91	13.888889135825
3	5244	2.01	13.888889109087
3	5800	2.11	13.888889083203
3	6356	2.21	13.888889058484
3	6912	2.31	13.888889035164
3	7468	2.41	13.888889013409
3	8024	2.51	13.88888899333
3	8580	2.61	13.888888974985
3	9136	2.71	13.888888958391
3	9692	2.81	13.888888943532
3	10248	2.91	13.888888930362
3	10812	3.01	13.888888918814
3	11368	3.11	13.888888908804
3	11924	3.21	13.888888900236
3	12480	3.31	13.888888893003
3	13036	3.41	13.888888886995
3	13592	3.51	13.888888882101
3	14148	3.61	13.888888878208
3	14704	3.71	13.888888875206
3	15260	3.81	13.888888872989
3	15816	3.91	13.888888871455
3	16380	4.01	13.888888870509
3	16936	4.11	13.888888870063
3	17492	4.21	13.888888870035
3	18048	4.31	13.88888887035
3	18604	4.41	13.888888870941
3	19160	4.51	13.888888871748
3	19716	4.61	13.888888872717
3	20272	4.71	13.888888873802
3	20828	4.81	13.888888874963
3	21384	4.91	13.888888876165
3	21949	5.01	13.888888877379
3	22506	5.11	13.88895714287
3	23063	5.21	13.8931707169
3	23620	5.31	13.906886981158
3	24177	5.41	13.934167403487
3	24734	5.51	13.977833057683
3	25291	5.61	14.039174898244
3	25848	5.71	14.116438827352
3	26405	5.81	14.206769915256
3	26962	5.91	14.307820624663
3	27527	6.01	14.417665157344
3	28084	6.11	14.534723687999
3	28641	6.21	14.657700209627
3	29198	6.31	14.785531545087
3	29755	6.41	14.917345518821
3	30312	6.51	15.052425059448
3	30869	6.61	15.189500093972
3	31426	6.71	15.324463010101
3	31983	6.81	15.452496243768
3	32540	6.91	15.569092845265
3	33105	7.01	15.670136008044
3	33662	7.11	15.751967163808
3	34219	7.21	15.811442461837
3	34776	7.31	15.845977552212
3	35333	7.41	15.853603639796
3	35890	7.51	15.834314677718
3	36447	7.61	15.791543255453
3	37004	7.71	15.729508036896
3	37561	7.81	15.651669795801
3	38118	7.91	15.560867572035
3	38683	8.01	15.459430367125
3	39240	8.11	15.349268773515
3	39797	8.21	15.231950142466
3	40354	8.31	15.108760247923
3	40911	8.41	14.980753872353
3	41468	8.51	14.848796304763
3	42025	8.61	14.713597383517
3	42582	8.71	14.575739423308
3	43139	8.81	14.435700125008
3	43696	8.91	14.293871369713
3	44261	9.01	14.150574636415
3	44818	9.11	14.006073649857
3	45375	9.21	13.860584756185
3	45932	9.31	13.714285434593
3	46489	9.41	13.567321279832
3	47046	9.51	13.419909418317
3	47603	9.61	13.276568052228
3	48160	9.71	13.144199549998
3	48717	9.81	13.028740637906
3	49274	9.91	12.935077207518
3	49839	10.01	12.867053163966
3	50396	10.11	12.827492798447
3	50953	10.21	12.818184012284
3	51510	10.31	12.836987312871
3	52067	10.41	12.879360323559
3	52624	10.51	12.941068705856
3	53181	10.61	13.01863882738
3	53738	10.71	13.109221099712
3	54295	10.81	13.210477867837
3	54852	10.91	13.320491440438
3	55417	11.01	13.437688642703
3	55974	11.11	13.56077892335
3	56531	11.21	13.688703580829
3	57088	11.31	13.820594111122
3	57645	11.41	13.955738038437
3	58202	11.51	14.093550884467
3	58759	11.61	14.233553173427
3	59316	11.71	14.375351568173
3	59873	11.81	14.518623395246
3	60430	11.91	14.66269730263
3	60995	12.01	14.802538408274
3	61552	12.11	14.931758497807
3	62109	12.21	15.044820373205
3	62666	12.31	15.137065146099
3	63223	12.41	15.204725281664
3	63780	12.51	15.244924342721
3	64337	12.61	15.255706566207
3	64894	12.71	15.238438484058
3	65451	12.81	15.197324887205
3	66008	12.91	15.136649662907
3	66573	13.01	15.05992709079
3	67130	13.11	14.970040104174
3	67687	13.21	14.869353712503
3	68244	13.31	14.759808047257
3	68801	13.41	14.642994691995
3	69358	13.51	14.520219299584
3	69915	13.61	14.392552960135
3	70472	13.71	14.260874340597
3	71029	13.81	14.125904253911
3	71586	13.91	13.988234017746
3	72151	14.01	13.848348718545
3	72708	14.11	13.706646296149
3	73265	14.21	13.56345319983
3	73822	14.31	13.419037231692
3	74379	14.41	13.273657135565
3	74936	14.51	13.130441982788
3	75493	14.61	12.995670307401
3	76050	14.71	12.875370078417
3	76607	14.81	12.774633040977
3	77164	14.91	12.697604313193
3	77729	15.01	12.647485799739
3	78286	15.11	12.626530819682
3	78843	15.21	12.634779968798
3	79400	15.31	12.66849489927
3	79957	15.41	12.723100640181
3	80514	15.51	12.79484412192
3	81071	15.61	12.88064652021
3	81628	15.71	12.977982126792
3	82185	15.81	13.084778981187
3	82742	15.91	13.199337354141
3	83307	16.01	13.320262875649
3	83864	16.11	13.446411676648
3	84421	16.21	13.576845386097
3	84978	16.31	13.71079421291
3	85535	16.41	13.847626660274
3	86092	16.51	13.986824680856
3	86649	16.61	14.127963295405
3	87206	16.71	14.270693872916
3	87763	16.81	14.414730414535
3	88320	16.91	14.559787728906
3	88885	17.01	14.702082559026
3	89442	17.11	14.835117319103
3	89999	17.21	14.95304189545
3	90556	17.31	15.050921902539
3	91113	17.41	15.124749945874
3	91670	17.51	15.171443265846
3	92227	17.61	15.188857753955
3	92784	17.71	15.177461901473
3	93341	17.81	15.141165578244
3	93898	17.91	15.084442196173
3	94463	18.01	15.010961511109
3	95020	18.11	14.923734001024
3	95577	18.21	14.825229306406
3	96134	18.31	14.717473392626
3	96691	18.41	14.602128256938
3	97248	18.51	14.480557315958
3	97805	18.61	14.353879046192
3	98362	18.71	14.223010987939
3	98919	18.81	14.088705843826
3	99476	18.91	13.951581092168
3	100041	19.01	13.812143280257
3	100598	19.11	13.670807953298
3	101155	19.21	13.527916003097
3	101712	19.31	13.383747079665
3	102269	19.41	13.23857652977
3	102826	19.51	13.095945007457
3	103383	19.61	12.962270845178
3	103940	19.71	12.843470007216
3	104497	19.81	12.744535147797
3	105054	19.91	12.669524665226
3	105619	20.01	12.621565448378
3	106176	20.11	12.602842059212
3	106733	20.21	12.613074483492
3	107290	20.31	12.648416390373
3	107847	20.41	12.704356818615
3	108404	20.51	12.777195208837
3	108961	20.61	12.863895813439
3	109518	20.71	12.961968262042
3	110075	20.81	13.069369583537
3	110632	20.91	13.184423830048
3	111197	21.01	13.305756140585
3	111754	21.11	13.432238650273
3	112311	21.21	13.562946117079
3	112868	21.31	13.697119520272
3	113425	21.41	13.834136198489
3	113982	21.51	13.973485352538
3	114539	21.61	14.114747949169
3	115096	21.71	14.25758023517
3	115653	21.81	14.401700213177
3	116210	21.91	14.546829114103
3	116775	22.01	14.689336934087
3	117332	22.11	14.822775023755
3	117889	22.21	14.941251840502
3	118446	22.31	15.039796341815
3	119003	22.41	15.114369048335
3	119560	22.51	15.161859441787
3	120117	22.61	15.180097968285
3	120674	22.71	15.169434538294
3	121231	22.81	15.13373905661
3	121788	22.91	15.07750857388
3	122353	23.01	15.004432237952
3	122910	23.11	14.917536434993
3	123467	23.21	14.819303855751
3	124024	23.31	14.711771171359
3	124581	23.41	14.596609161518
3	125138	23.51	14.475188447516
3	125695	23.61	14.348633416197
3	126252	23.71	14.217866456394
3	126809	23.81	14.083644248221
3	127366	23.91	13.946587532923
3	127931	24.01	13.807205534522
3	128488	24.11	13.665915994083
3	129045	24.21	13.523061604774
3	129602	24.31	13.378923494356
3	130159	24.41	13.233779163163
3	130716	24.51	13.091225460604
3	131273	24.61	12.957699786749
3	131830	24.71	12.839102746868
3	132387	24.81	12.74041340342
3	132944	24.91	12.665678256479
3	133509	25.01	12.618013899389
3	134066	25.11	12.599595455496
3	134623	25.21	12.61009895213
3	135180	25.31	12.645663232756
3	135737	25.41	12.701786084922
3	136294	25.51	12.774774126299
3	136851	25.61	12.861597496972
3	137408	25.71	12.959770656513
3	137965	25.81	13.067254596054
3	138522	25.91	13.182376618139
3	139087	26.01	13.303764528253
3	139644	26.11	13.43029264896
3	140201	26.21	13.561037532686
3	140758	26.31	13.695241630788
3	141315	26.41	13.83228348952
3	141872	26.51	13.971653300362
3	142429	26.61	14.112932842758
3	142986	26.71	14.255779030189
3	143543	26.81	14.39991041221
3	144100	26.91	14.545049017674
3	144665	27.01	14.687585693517
3	145222	27.11	14.821078865042
3	145779	27.21	14.939631290159
3	146336	27.31	15.03826688263
3	146893	27.41	15.112941747789
3	147450	27.51	15.160541546767
3	148007	27.61	15.17889322306
3	148564	27.71	15.168330374919
3	149121	27.81	15.132717405387
3	149678	27.91	15.076554611359
3	150243	28.01	15.003533803743
3	150800	28.11	14.91668355334
3	151357	28.21	14.818488343061
3	151914	28.31	14.710986314233
3	152471	28.41	14.595849452632
3	153028	28.51	14.474449368947
3	153585	28.61	14.347911261671
3	154142	28.71	14.21715818548
3	154699	28.81	14.082947366705
3	155256	28.91	13.945899994678
3	155821	29.01	13.806525661016
3	156378	29.11	13.665242408331
3	156935	29.21	13.522393177171
3	157492	29.31	13.378259298231
3	158049	29.41	13.23311856794
3	158606	29.51	13.090575573438
3	159163	29.61	12.957070340203
3	159720	29.71	12.838501358414
3	160277	29.81	12.739845818791
3	160834	29.91	12.665148582879
3	161399	30.01	12.617524826186
3	161956	30.11	12.59914837223
3	162513	30.21	12.609689194843
3	163070	30.31	12.645284095771
3	163627	30.41	12.701432067251
3	164184	30.51	12.774440715214
3	164741	30.61	12.861280990466
3	165298	30.71	12.959468017648
3	165855	30.81	13.066963333485
3	166412	30.91	13.182094688096
3	166977	31.01	13.303490254132
3	167534	31.11	13.43002465536
3	168091	31.21	13.560774691303
3	168648	31.31	13.694983016015
3	169205	31.41	13.832028342041
3	169762	31.51	13.971400997271
3	170319	31.61	14.112682873057
3	170876	31.71	14.255530974679
3	171433	31.81	14.399663927005
3	171990	31.91	14.544803868766
3	172555	32.01	14.687344518393
3	173112	32.11	14.82084527549
3	173669	32.21	14.939408113045
3	174226	32.31	15.038056250216
3	174783	32.41	15.112745184271
3	175340	32.51	15.16036005018
3	175897	32.61	15.178727309066
3	176454	32.71	15.16817831271
3	177011	32.81	15.132576706465
3	177568	32.91	15.07642323429
3	178133	33.01	15.003410073841
3	178690	33.11	14.91656609678
3	179247	33.21	14.818376032824
3	179804	33.31	14.710878225775
3	180361	33.41	14.595744827503
3	180918	33.51	14.474347584953
3	181475	33.61	14.347811808398
3	182032	33.71	14.21706064421
3	182589	33.81	14.082851393943
3	183146	33.91	13.94580530864
3	183711	34.01	13.806432030538
3	184268	34.11	13.665149643781
3	184825	34.21	13.522301122983
3	185382	34.31	13.378167826789
3	185939	34.41	13.233027592401
3	186496	34.51	13.090486072583
3	187053	34.61	12.956983654378
3	187610	34.71	12.838418536677
3	188167	34.81	12.739767652433
3	188724	34.91	12.665075637532
3	189289	35.01	12.617457472225
3	189846	35.11	12.59908680102
3	190403	35.21	12.609632764073
3	190960	35.31	12.645231881954
3	191517	35.41	12.701383312803
3	192074	35.51	12.774394798654
3	192631	35.61	12.861237401962
3	193188	35.71	12.959426338962
1	232	1.11	0
1	788	1.21	0
1	1344	1.31	0
1	1900	1.41	0
1	2456	1.51	0
1	3012	1.61	0
1	3568	1.71	0
1	4124	1.81	0
1	4680	1.91	0
1	5244	2.01	0
1	5800	2.11	0
1	6356	2.21	0
1	6912	2.31	0
1	7468	2.41	0
1	8024	2.51	0
1	8580	2.61	0
1	9136	2.71	0
1	9692	2.81	0
1	10248	2.91	0
1	10812	3.01	0
1	11368	3.11	0
1	11924	3.21	0
1	12480	3.31	0
1	13036	3.41	0
1	13592	3.51	0
1	14148	3.61	0
1	14704	3.71	0
1	15260	3.81	0
1	15816	3.91	0
1	16380	4.01	0
1	16936	4.11	0
1	17492	4.21	0
1	18048	4.31	0
1	18604	4.41	0
1	19160	4.51	0
1	19716	4.61	0
1	20272	4.71	0
1	20828	4.81	0
1	21384	4.91	0
1	21949	5.01	0
1	22506	5.11	0
1	23063	5.21	0
1	23620	5.31	0
1	24177	5.41	0
1	24734	5.51	0
1	25291	5.61	0
1	25848	5.71	0
1	26405	5.81	0
1	26962	5.91	0
1	27527	6.01	0
1	28084	6.11	0
1	28641	6.21	0
1	29198	6.31	0
1	29755	6.41	0
1	30312	6.51	0
1	30869	6.61	0
1	31426	6.71	0
1	31983	6.81	0
1	32540	6.91	0
1	33105	7.01	0
1	33662	7.11	0
1	34219	7.21	0
1	34776	7.31	0
1	35333	7.41	0
1	35890	7.51	0
1	36447	7.61	0
1	37004	7.71	0
1	37561	7.81	0
1	38118	7.91	0
1	38683	8.01	0
1	39240	8.11	0
1	39797	8.21	0
1	40354	8.31	0
1	40911	8.41	0
1	41468	8.51	0
1	42025	8.61	0
1	42582	8.71	0
1	43139	8.81	0
1	43696	8.91	0
1	44261	9.01	0
1	44818	9.11	0
1	45375	9.21	0
1	45932	9.31	0
1	46489	9.41	0
1	47046	9.51	0
1	47603	9.61	0
1	48160	9.71	0
1	48717	9.81	0
1	49274	9.91	0
1	49839	10.01	0
1	50396	10.11	0
1	50953	10.21	0
1	51510	10.31	0
1	52067	10.41	0
1	52624	10.51	0
1	53181	10.61	0
1	53738	10.71	0
1	54295	10.81	0
1	54852	10.91	0
1	55417	11.01	0
1	55974	11.11	0
1	56531	11.21	0
1	57088	11.31	0
1	57645	11.41	0
1	58202	11.51	0
1	58759	11.61	0
1	59316	11.71	0
1	59873	11.81	0
1	60430	11.91	0
1	60995	12.01	0
1	61552	12.11	0
1	62109	12.21	0
1	62666	12.31	0
1	63223	12.41	0
1	63780	12.51	0
1	64337	12.61	0
1	64894	12.71	0
1	65451	12.81	0
1	66008	12.91	0
1	66573	13.01	0
1	67130	13.11	0
1	67687	13.21	0
1	68244	13.31	0
1	68801	13.41	0
1	69358	13.51	0
1	69915	13.61	0
1	70472	13.71	0
1	71029	13.81	0
1	71586	13.91	0
1	72151	14.01	0
1	72708	14.11	0
1	73265	14.21	0
1	73822	14.31	0
1	74379	14.41	0
1	74936	14.51	0
1	75493	14.61	0
1	76050	14.71	0
1	76607	14.81	0
1	77164	14.91	0
1	77729	15.01	0
1	78286	15.11	0
1	78843	15.21	0
1	79400	15.31	0
1	79957	15.41	0
1	80514	15.51	0
1	81071	15.61	0
1	81628	15.71	0
1	82185	15.81	0
1	82742	15.91	0
1	83307	16.01	0
1	83864	16.11	0
1	84421	16.21	0
1	84978	16.31	0
1	85535	16.41	0
1	86092	16.51	0
1	86649	16.61	0
1	87206	16.71	0
1	87763	16.81	0
1	88320	16.91	0
1	88885	17.01	0
1	89442	17.11	0
1	89999	17.21	0
1	90556	17.31	0
1	91113	17.41	0
1	91670	17.51	0
1	92227	17.61	0
1	92784	17.71	0
1	93341	17.81	0
1	93898	17.91	0
1	94463	18.01	0
1	95020	18.11	0
1	95577	18.21	0
1	96134	18.31	0
1	96691	18.41	0
1	97248	18.51	0
1	97805	18.61	0
1	98362	18.71	0
1	98919	18.81	0
1	99476	18.91	0
1	100041	19.01	0
1	100598	19.11	0
1	101155	19.21	0
1	101712	19.31	0
1	102269	19.41	0
1	102826	19.51	0
1	103383	19.61	0
1	103940	19.71	0
1	104497	19.81	0
1	105054	19.91	0
1	105619	20.01	0
1	106176	20.11	0
1	106733	20.21	0
1	107290	20.31	0
1	107847	20.41	0
1	108404	20.51	0
1	108961	20.61	0
1	109518	20.71	0
1	110075	20.81	0
1	110632	20.91	0
1	111197	21.01	0
1	111754	21.11	0
1	112311	21.21	0
1	112868	21.31	0
1	113425	21.41	0
1	113982	21.51	0
1	114539	21.61	0
1	115096	21.71	0
1	115653	21.81	0
1	116210	21.91	0
1	116775	22.01	0
1	117332	22.11	0
1	117889	22.21	0
1	118446	22.31	0
1	119003	22.41	0
1	119560	22.51	0
1	120117	22.61	0
1	120674	22.71	0
1	121231	22.81	0
1	121788	22.91	0
1	122353	23.01	0
1	122910	23.11	0
1	123467	23.21	0
1	124024	23.31	0
1	124581	23.41	0
1	125138	23.51	0
1	125695	23.61	0
1	126252	23.71	0
1	126809	23.81	0
1	127366	23.91	0
1	127931	24.01	0
1	128488	24.11	0
1	129045	24.21	0
1	129602	24.31	0
1	130159	24.41	0
1	130716	24.51	0
1	131273	24.61	0
1	131830	24.71	0
1	132387	24.81	0
1	132944	24.91	0
1	133509	25.01	0
1	134066	25.11	0
1	134623	25.21	0
1	135180	25.31	0
1	135737	25.41	0
1	136294	25.51	0
1	136851	25.61	0
1	137408	25.71	0
1	137965	25.81	0
1	138522	25.91	0
1	139087	26.01	0
1	139644	26.11	0
1	140201	26.21	0
1	140758	26.31	0
1	141315	26.41	0
1	141872	26.51	0
1	142429	26.61	0
1	142986	26.71	0
1	143543	26.81	0
1	144100	26.91	0
1	144665	27.01	0
1	145222	27.11	0
1	145779	27.21	0
1	146336	27.31	0
1	146893	27.41	0
1	147450	27.51	0
1	148007	27.61	0
1	148564	27.71	0
1	149121	27.81	0
1	149678	27.91	0
1	150243	28.01	0
1	150800	28.11	0
1	151357	28.21	0
1	151914	28.31	0
1	152471	28.41	0
1	153028	28.51	0
1	153585	28.61	0
1	154142	28.71	0
1	154699	28.81	0
1	155256	28.91	0
1	155821	29.01	0
1	156378	29.11	0
1	156935	29.21	0
1	157492	29.31	0
1	158049	29.41	0
1	158606	29.51	0
1	159163	29.61	0
1	159720	29.71	0
1	160277	29.81	0
1	160834	29.91	0
1	161399	30.01	0
1	161956	30.11	0
1	162513	30.21	0
1	163070	30.31	0
1	163627	30.41	0
1	164184	30.51	0
1	164741	30.61	0
1	165298	30.71	0
1	165855	30.81	0
1	166412	30.91	0
1	166977	31.01	0
1	167534	31.11	0
1	168091	31.21	0
1	168648	31.31	0
1	169205	31.41	0
1	169762	31.51	0
1	170319	31.61	0
1	170876	31.71	0
1	171433	31.81	0
1	171990	31.91	0
1	172555	32.01	0
1	173112	32.11	0
1	173669	32.21	0
1	174226	32.31	0
1	174783	32.41	0
1	175340	32.51	0
1	175897	32.61	0
1	176454	32.71	0
1	177011	32.81	0
1	177568	32.91	0
1	178133	33.01	0
1	178690	33.11	0
1	179247	33.21	0
1	179804	33.31	0
1	180361	33.41	0
1	180918	33.51	0
1	181475	33.61	0
1	182032	33.71	0
1	182589	33.81	0
1	183146	33.91	0
1	183711	34.01	0
1	184268	34.11	0
1	184825	34.21	0
1	185382	34.31	0
1	185939	34.41	0
1	186496	34.51	0
1	187053	34.61	0
1	187610	34.71	0
1	188167	34.81	0
1	188724	34.91	0
1	189289	35.01	0
1	189846	35.11	0
1	190403	35.21	0
1	190960	35.31	0
1	191517	35.41	0
1	192074	35.51	0
1	192631	35.61	0
1	193188	35.71	0
0	232	1.11	-1
0	788	1.21	-1
0	1344	1.31	-1
0	1900	1.41	-1
0	2456	1.51	-1
0	3012	1.61	-1
0	3568	1.71	-1
0	4124	1.81	-1
0	4680	1.91	-1
0	5244	2.01	-1
0	5800	2.11	-1
0	6356	2.21	-1
0	6912	2.31	-1
0	7468	2.41	-1
0	8024	2.51	-1
0	8580	2.61	-1
0	9136	2.71	-1
0	9692	2.81	-1
0	10248	2.91	-1
0	10812	3.01	-1
0	11368	3.11	-1
0	11924	3.21	-1
0	12480	3.31	-1
0	13036	3.41	-1
0	13592	3.51	-1
0	14148	3.61	-1
0	14704	3.71	-1
0	15260	3.81	-1
0	15816	3.91	-1
0	16380	4.01	-1
0	16936	4.11	-1
0	17492	4.21	-1
0	18048	4.31	-1
0	18604	4.41	-1
0	19160	4.51	-1
0	19716	4.61	-1
0	20272	4.71	-1
0	20828	4.81	-1
0	21384	4.91	-1
0	21949	5.01	-1
0	22506	5.11	-1
0	23063	5.21	-1
0	23620	5.31	-1
0	24177	5.41	-1
0	24734	5.51	-1
0	25291	5.61	-1
0	25848	5.71	-1
0	26405	5.81	-1
0	26962	5.91	-1
0	27527	6.01	-1
0	28084	6.11	-1
0	28641	6.21	-1
0	29198	6.31	-1
0	29755	6.41	-1
0	30312	6.51	-1
0	30869	6.61	-1
0	31426	6.71	-1
0	31983	6.81	-1
0	32540	6.91	-1
0	33105	7.01	-1
0	33662	7.11	-1
0	34219	7.21	-1
0	34776	7.31	-1
0	35333	7.41	-1
0	35890	7.51	-1
0	36447	7.61	-1
0	37004	7.71	-1
0	37561	7.81	-1
0	38118	7.91	-1
0	38683	8.01	-1
0	39240	8.11	-1
0	39797	8.21	-1
0	40354	8.31	-1
0	40911	8.41	-1
0	41468	8.51	-1
0	42025	8.61	-1
0	42582	8.71	-1
0	43139	8.81	-1
0	43696	8.91	-1
0	44261	9.01	-1
0	44818	9.11	-1
0	45375	9.21	-1
0	45932	9.31	-1
0	46489	9.41	-1
0	47046	9.51	-1
0	47603	9.61	-1
0	48160	9.71	-1
0	48717	9.81	-1
0	49274	9.91	-1
0	49839	10.01	-1
0	50396	10.11	-1
0	50953	10.21	-1
0	51510	10.31	-1
0	52067	10.41	-1
0	52624	10.51	-1
0	53181	10.61	-1
0	53738	10.71	-1
0	54295	10.81	-1
0	54852	10.91	-1
0	55417	11.01	-1
0	55974	11.11	-1
0	56531	11.21	-1
0	57088	11.31	-1
0	57645	11.41	-1
0	58202	11.51	-1
0	58759	11.61	-1
0	59316	11.71	-1
0	59873	11.81	-1
0	60430	11.91	-1
0	60995	12.01	-1
0	61552	12.11	-1
0	62109	12.21	-1
0	62666	12.31	-1
0	63223	12.41	-1
0	63780	12.51	-1
0	64337	12.61	-1
0	64894	12.71	-1
0	65451	12.81	-1
0	66008	12.91	-1
0	66573	13.01	-1
0	67130	13.11	-1
0	67687	13.21	-1
0	68244	13.31	-1
0	68801	13.41	-1
0	69358	13.51	-1
0	69915	13.61	-1
0	70472	13.71	-1
0	71029	13.81	-1
0	71586	13.91	-1
0	72151	14.01	-1
0	72708	14.11	-1
0	73265	14.21	-1
0	73822	14.31	-1
0	74379	14.41	-1
0	74936	14.51	-1
0	75493	14.61	-1
0	76050	14.71	-1
0	76607	14.81	-1
0	77164	14.91	-1
0	77729	15.01	-1
0	78286	15.11	-1
0	78843	15.21	-1
0	79400	15.31	-1
0	79957	15.41	-1
0	80514	15.51	-1
0	81071	15.61	-1
0	81628	15.71	-1
0	82185	15.81	-1
0	82742	15.91	-1
0	83307	16.01	-1
0	83864	16.11	-1
0	84421	16.21	-1
0	84978	16.31	-1
0	85535	16.41	-1
0	86092	16.51	-1
0	86649	16.61	-1
0	87206	16.71	-1
0	87763	16.81	-1
0	88320	16.91	-1
0	88885	17.01	-1
0	89442	17.11	-1
0	89999	17.21	-1
0	90556	17.31	-1
0	91113	17.41	-1
0	91670	17.51	-1
0	92227	17.61	-1
0	92784	17.71	-1
0	93341	17.81	-1
0	93898	17.91	-1
0	94463	18.01	-1
0	95020	18.11	-1
0	95577	18.21	-1
0	96134	18.31	-1
0	96691	18.41	-1
0	97248	18.51	-1
0	97805	18.61	-1
0	98362	18.71	-1
0	98919	18.81	-1
0	99476	18.91	-1
0	100041	19.01	-1
0	100598	19.11	-1
0	101155	19.21	-1
0	101712	19.31	-1
0	102269	19.41	-1
0	102826	19.51	-1
0	103383	19.61	-1
0	103940	19.71	-1
0	104497	19.81	-1
0	105054	19.91	-1
0	105619	20.01	-1
0	106176	20.11	-1
0	106733	20.21	-1
0	107290	20.31	-1
0	107847	20.41	-1
0	108404	20.51	-1
0	108961	20.61	-1
0	109518	20.71	-1
0	110075	20.81	-1
0	110632	20.91	-1
0	111197	21.01	-1
0	111754	21.11	-1
0	112311	21.21	-1
0	112868	21.31	-1
0	113425	21.41	-1
0	113982	21.51	-1
0	114539	21.61	-1
0	115096	21.71	-1
0	115653	21.81	-1
0	116210	21.91	-1
0	116775	22.01	-1
0	117332	22.11	-1
0	117889	22.21	-1
0	118446	22.31	-1
0	119003	22.41	-1
0	119560	22.51	-1
0	120117	22.61	-1
0	120674	22.71	-1
0	121231	22.81	-1
0	121788	22.91	-1
0	122353	23.01	-1
0	122910	23.11	-1
0	123467	23.21	-1
0	124024	23.31	-1
0	124581	23.41	-1
0	125138	23.51	-1
0	125695	23.61	-1
0	126252	23.71	-1
0	126809	23.81	-1
0	127366	23.91	-1
0	127931	24.01	-1
0	128488	24.11	-1
0	129045	24.21	-1
0	129602	24.31	-1
0	130159	24.41	-1
0	130716	24.51	-1
0	131273	24.61	-1
0	131830	24.71	-1
0	132387	24.81	-1
0	132944	24.91	-1
0	133509	25.01	-1
0	134066	25.11	-1
0	134623	25.21	-1
0	135180	25.31	-1
0	135737	25.41	-1
0	136294	25.51	-1
0	136851	25.61	-1
0	137408	25.71	-1
0	137965	25.81	-1
0	138522	25.91	-1
0	139087	26.01	-1
0	139644	26.11	-1
0	140201	26.21	-1
0	140758	26.31	-1
0	141315	26.41	-1
0	141872	26.51	-1
0	142429	26.61	-1
0	142986	26.71	-1
0	143543	26.81	-1
0	144100	26.91	-1
0	144665	27.01	-1
0	145222	27.11	-1
0	145779	27.21	-1
0	146336	27.31	-1
0	146893	27.41	-1
0	147450	27.51	-1
0	148007	27.61	-1
0	148564	27.71	-1
0	149121	27.81	-1
0	149678	27.91	-1
0	150243	28.01	-1
0	150800	28.11	-1
0	151357	28.21	-1
0	151914	28.31	-1
0	152471	28.41	-1
0	153028	28.51	-1
0	153585	28.61	-1
0	154142	28.71	-1
0	154699	28.81	-1
0	155256	28.91	-1
0	155821	29.01	-1
0	156378	29.11	-1
0	156935	29.21	-1
0	157492	29.31	-1
0	158049	29.41	-1
0	158606	29.51	-1
0	159163	29.61	-1
0	159720	29.71	-1
0	160277	29.81	-1
0	160834	29.91	-1
0	161399	30.01	-1
0	161956	30.11	-1
0	162513	30.21	-1
0	163070	30.31	-1
0	163627	30.41	-1
0	164184	30.51	-1
0	164741	30.61	-1
0	165298	30.71	-1
0	165855	30.81	-1
0	166412	30.91	-1
0	166977	31.01	-1
0	167534	31.11	-1
0	168091	31.21	-1
0	168648	31.31	-1
0	169205	31.41	-1
0	169762	31.51	-1
0	170319	31.61	-1
0	170876	31.71	-1
0	171433	31.81	-1
0	171990	31.91	-1
0	172555	32.01	-1
0	173112	32.11	-1
0	173669	32.21	-1
0	174226	32.31	-1
0	174783	32.41	-1
0	175340	32.51	-1
0	175897	32.61	-1
0	176454	32.71	-1
0	177011	32.81	-1
0	177568	32.91	-1
0	178133	33.01	-1
0	178690	33.11	-1
0	179247	33.21	-1
0	179804	33.31	-1
0	180361	33.41	-1
0	180918	33.51	-1
0	181475	33.61	-1
0	182032	33.71	-1
0	182589	33.81	-1
0	183146	33.91	-1
0	183711	34.01	-1
0	184268	34.11	-1
0	184825	34.21	-1
0	185382	34.31	-1
0	185939	34.41	-1
0	186496	34.51	-1
0	187053	34.61	-1
0	187610	34.71	-1
0	188167	34.81	-1
0	188724	34.91	-1
0	189289	35.01	-1
0	189846	35.11	-1
0	190403	35.21	-1
0	190960	35.31	-1
0	191517	35.41	-1
0	192074	35.51	-1
0	192631	35.61	-1
0	193188	35.71	-1
2	232	1.11	0
2	788	1.21	0
2	1344	1.31	0
2	1900	1.41	0
2	2456	1.51	0
2	3012	1.61	0
2	3568	1.71	0
2	4124	1.81	0
2	4680	1.91	0
2	5244	2.01	0
2	5800	2.11	0
2	6356	2.21	0
2	6912	2.31	0
2	7468	2.41	0
2	8024	2.51	0
2	8580	2.61	0
2	9136	2.71	0
2	9692	2.81	0
2	10248	2.91	0
2	10812	3.01	0
2	11368	3.11	0
2	11924	3.21	0
2	12480	3.31	0
2	13036	3.41	0
2	13592	3.51	0
2	14148	3.61	0
2	14704	3.71	0
2	15260	3.81	0
2	15816	3.91	0
2	16380	4.01	0
2	16936	4.11	0
2	17492	4.21	0
2	18048	4.31	0
2	18604	4.41	0
2	19160	4.51	0
2	19716	4.61	0
2	20272	4.71	0
2	20828	4.81	0
2	21384	4.91	0
2	21949	5.01	0
2	22506	5.11	0
2	23063	5.21	0
2	23620	5.31	0
2	24177	5.41	0
2	24734	5.51	0
2	25291	5.61	0
2	25848	5.71	0
2	26405	5.81	0
2	26962	5.91	0
2	27527	6.01	0
2	28084	6.11	0
2	28641	6.21	0
2	29198	6.31	0
2	29755	6.41	0
2	30312	6.51	0
2	30869	6.61	0
2	31426	6.71	0
2	31983	6.81	0
2	32540	6.91	0
2	33105	7.01	0
2	33662	7.11	0
2	34219	7.21	0
2	34776	7.31	0
2	35333	7.41	0
2	35890	7.51	0
2	36447	7.61	0
2	37004	7.71	0
2	37561	7.81	0
2	38118	7.91	0
2	38683	8.01	0
2	39240	8.11	0
2	39797	8.21	0
2	40354	8.31	0
2	40911	8.41	0
2	41468	8.51	0
2	42025	8.61	0
2	42582	8.71	0
2	43139	8.81	0
2	43696	8.91	0
2	44261	9.01	0
2	44818	9.11	0
2	45375	9.21	0
2	45932	9.31	0
2	46489	9.41	0
2	47046	9.51	0
2	47603	9.61	0
2	48160	9.71	0
2	48717	9.81	0
2	49274	9.91	0
2	49839	10.01	0
2	50396	10.11	0
2	50953	10.21	0
2	51510	10.31	0
2	52067	10.41	0
2	52624	10.51	0
2	53181	10.61	0
2	53738	10.71	0
2	54295	10.81	0
2	54852	10.91	0
2	55417	11.01	0
2	55974	11.11	0
2	56531	11.21	0
2	57088	11.31	0
2	57645	11.41	0
2	58202	11.51	0
2	58759	11.61	0
2	59316	11.71	0
2	59873	11.81	0
2	60430	11.91	0
2	60995	12.01	0
2	61552	12.11	0
2	62109	12.21	0
2	62666	12.31	0
2	63223	12.41	0
2	63780	12.51	0
2	64337	12.61	0
2	64894	12.71	0
2	65451	12.81	0
2	66008	12.91	0
2	66573	13.01	0
2	67130	13.11	0
2	67687	13.21	0
2	68244	13.31	0
2	68801	13.41	0
2	69358	13.51	0
2	69915	13.61	0
2	70472	13.71	0
2	71029	13.81	0
2	71586	13.91	0
2	72151	14.01	0
2	72708	14.11	0
2	73265	14.21	0
2	73822	14.31	0
2	74379	14.41	0
2	74936	14.51	0
2	75493	14.61	0
2	76050	14.71	0
2	76607	14.81	0
2	77164	14.91	0
2	77729	15.01	0
2	78286	15.11	0
2	78843	15.21	0
2	79400	15.31	0
2	79957	15.41	0
2	80514	15.51	0
2	81071	15.61	0
2	81628	15.71	0
2	82185	15.81	0
2	82742	15.91	0
2	83307	16.01	0
2	83864	16.11	0
2	84421	16.21	0
2	84978	16.31	0
2	85535	16.41	0
2	86092	16.51	0
2	86649	16.61	0
2	87206	16.71	0
2	87763	16.81	0
2	88320	16.91	0
2	88885	17.01	0
2	89442	17.11	0
2	89999	17.21	0
2	90556	17.31	0
2	91113	17.41	0
2	91670	17.51	0
2	92227	17.61	0
2	92784	17.71	0
2	93341	17.81	0
2	93898	17.91	0
2	94463	18.01	0
2	95020	18.11	0
2	95577	18.21	0
2	96134	18.31	0
2	96691	18.41	0
2	97248	18.51	0
2	97805	18.61	0
2	98362	18.71	0
2	98919	18.81	0
2	99476	18.91	0
2	100041	19.01	0
2	100598	19.11	0
2	101155	19.21	0
2	101712	19.31	0
2	102269	19.41	0
2	102826	19.51	0
2	103383	19.61	0
2	103940	19.71	0
2	104497	19.81	0
2	105054	19.91	0
2	105619	20.01	0
2	106176	20.11	0
2	106733	20.21	0
2	107290	20.31	0
2	107847	20.41	0
2	108404	20.51	0
2	108961	20.61	0
2	109518	20.71	0
2	110075	20.81	0
2	110632	20.91	0
2	111197	21.01	0
2	111754	21.11	0
2	112311	21.21	0
2	112868	21.31	0
2	113425	21.41	0
2	113982	21.51	0
2	114539	21.61	0
2	115096	21.71	0
2	115653	21.81	0
2	116210	21.91	0
2	116775	22.01	0
2	117332	22.11	0
2	117889	22.21	0
2	118446	22.31	0
2	119003	22.41	0
2	119560	22.51	0
2	120117	22.61	0
2	120674	22.71	0
2	121231	22.81	0
2	121788	22.91	0
2	122353	23.01	0
2	122910	23.11	0
2	123467	23.21	0
2	124024	23.31	0
2	124581	23.41	0
2	125138	23.51	0
2	125695	23.61	0
2	126252	23.71	0
2	126809	23.81	0
2	127366	23.91	0
2	127931	24.01	0
2	128488	24.11	0
2	129045	24.21	0
2	129602	24.31	0
2	130159	24.41	0
2	130716	24.51	0
2	131273	24.61	0
2	131830	24.71	0
2	132387	24.81	0
2	132944	24.91	0
2	133509	25.01	0
2	134066	25.11	0
2	134623	25.21	0
2	135180	25.31	0
2	135737	25.41	0
2	136294	25.51	0
2	136851	25.61	0
2	137408	25.71	0
2	137965	25.81	0
2	138522	25.91	0
2	139087	26.01	0
2	139644	26.11	0
2	140201	26.21	0
2	140758	26.31	0
2	141315	26.41	0
2	141872	26.51	0
2	142429	26.61	0
2	142986	26.71	0
2	143543	26.81	0
2	144100	26.91	0
2	144665	27.01	0
2	145222	27.11	0
2	145779	27.21	0
2	146336	27.31	0
2	146893	27.41	0
2	147450	27.51	0
2	148007	27.61	0
2	148564	27.71	0
2	149121	27.81	0
2	149678	27.91	0
2	150243	28.01	0
2	150800	28.11	0
2	151357	28.21	0
2	151914	28.31	0
2	152471	28.41	0
2	153028	28.51	0
2	153585	28.61	0
2	154142	28.71	0
2	154699	28.81	0
2	155256	28.91	0
2	155821	29.01	0
2	156378	29.11	0
2	156935	29.21	0
2	157492	29.31	0
2	158049	29.41	0
2	158606	29.51	0
2	159163	29.61	0
2	159720	29.71	0
2	160277	29.81	0
2	160834	29.91	0
2	161399	30.01	0
2	161956	30.11	0
2	162513	30.21	0
2	163070	30.31	0
2	163627	30.41	0
2	164184	30.51	0
2	164741	30.61	0
2	165298	30.71	0
2	165855	30.81	0
2	166412	30.91	0
2	166977	31.01	0
2	167534	31.11	0
2	168091	31.21	0
2	168648	31.31	0
2	169205	31.41	0
2	169762	31.51	0
2	170319	31.61	0
2	170876	31.71	0
2	171433	31.81	0
2	171990	31.91	0
2	172555	32.01	0
2	173112	32.11	0
2	173669	32.21	0
2	174226	32.31	0
2	174783	32.41	0
2	175340	32.51	0
2	175897	32.61	0
2	176454	32.71	0
2	177011	32.81	0
2	177568	32.91	0
2	178133	33.01	0
2	178690	33.11	0
2	179247	33.21	0
2	179804	33.31	0
2	180361	33.41	0
2	180918	33.51	0
2	181475	33.61	0
2	182032	33.71	0
2	182589	33.81	0
2	183146	33.91	0
2	183711	34.01	0
2	184268	34.11	0
2	184825	34.21	0
2	185382	34.31	0
2	185939	34.41	0
2	186496	34.51	0
2	187053	34.61	0
2	187610	34.71	0
2	188167	34.81	0
2	188724	34.91	0
2	189289	35.01	0
2	189846	35.11	0
2	190403	35.21	0
2	190960	35.31	0
2	191517	35.41	0
2	192074	35.51	0
2	192631	35.61	0
2	193188	35.71	0
10	5234	2	0
10	10802	3	0
10	16370	4	0
10	21939	5	0
10	27516	6	0
10	33094	7	0
10	38672	8	0
10	44250	9	0
10	49828	10	0
10	55406	11	0
10	60984	12	0
10	66562	13	0
10	72140	14	0
10	77718	15	0
10	83296	16	0
10	88874	17	0
10	94452	18	0
10	100030	19	0
10	105608	20	0
10	111186	21	0
10	116764	22	0
10	122342	23	0
10	127920	24	0
10	133498	25	0
10	139076	26	0
10	144654	27	0
10	150232	28	0
10	155810	29	0
10	161388	30	0
10	166966	31	0
10	172544	32	0
10	178122	33	0
10	183700	34	0
10	189278	35	0
9	5234	2	0.023625
9	10802	3	0.02625
9	16370	4	0.02625
9	21939	5	0.02625
9	27516	6	0.02625
9	33094	7	0.02625
9	38672	8	0.02625
9	44250	9	0.02625
9	49828	10	0.02625
9	55406	11	0.02625
9	60984	12	0.02625
9	66562	13	0.02625
9	72140	14	0.02625
9	77718	15	0.02625
9	83296	16	0.02625
9	88874	17	0.02625
9	94452	18	0.02625
9	100030	19	0.02625
9	105608	20	0.02625
9	111186	21	0.02625
9	116764	22	0.02625
9	122342	23	0.02625
9	127920	24	0.02625
9	133498	25	0.02625
9	139076	26	0.02625
9	144654	27	0.02625
9	150232	28	0.02625
9	155810	29	0.02625
9	161388	30	0.02625
9	166966	31	0.02625
9	172544	32	0.02625
9	178122	33	0.02625
9	183700	34	0.02625
9	189278	35	0.02625
8	5234	2	0
8	10802	3	0
8	16370	4	0
8	21939	5	0
8	27516	6	0
8	33094	7	0
8	38672	8	0
8	44250	9	0
8	49828	10	0
8	55406	11	0
8	60984	12	0
8	66562	13	0
8	72140	14	0
8	77718	15	0
8	83296	16	0
8	88874	17	0
8	94452	18	0
8	100030	19	0
8	105608	20	0
8	111186	21	0
8	116764	22	0
8	122342	23	0
8	127920	24	0
8	133498	25	0
8	139076	26	0
8	144654	27	0
8	150232	28	0
8	155810	29	0
8	161388	30	0
8	166966	31	0
8	172544	32	0
8	178122	33	0
8	183700	34	0
8	189278	35	0
29	233	1.11	0
29	789	1.21	-4.2063076293175e-07
29	1345	1.31	-4.1080408593075e-07
29	1901	1.41	-3.9544443460215e-07
29	2457	1.51	-3.758338570492e-07
29	3013	1.61	-3.5309765664238e-07
29	3569	1.71	-3.2821276548134e-07
29	4125	1.81	-3.0201725024881e-07
29	4681	1.91	-2.7522047204798e-07
29	5245	2.01	-2.4841375982021e-07
29	5801	2.11	-2.2208126132739e-07
29	6357	2.21	-1.9661067071297e-07
29	6913	2.31	-1.7230376393229e-07
29	7469	2.41	-1.4938655624519e-07
29	8025	2.51	-1.2801901803527e-07
29	8581	2.61	-1.0830410829499e-07
29	9137	2.71	-9.0296315562455e-08
29	9693	2.81	-7.4009397366126e-08
29	10249	2.91	-5.942355727484e-08
29	10813	3.01	-4.6491900604906e-08
29	11369	3.11	-3.5146130556996e-08
29	11925	3.21	-2.5301691763957e-08
29	12481	3.31	-1.686224841535e-08
29	13037	3.41	-9.7235225382519e-09
29	13593	3.51	-3.7766345428736e-09
29	14149	3.61	1.0891038471073e-09
29	14705	3.71	4.9838398297197e-09
29	15261	3.81	8.0153353820833e-09
29	15817	3.91	1.0287416358778e-08
29	16381	4.01	1.1898829654911e-08
29	16937	4.11	1.2942341740541e-08
29	17493	4.21	1.3504186995306e-08
29	18049	4.31	1.3663688420706e-08
29	18605	4.41	1.3493055135427e-08
29	19161	4.51	1.3057362195923e-08
29	19717	4.61	1.2414656325177e-08
29	20273	4.71	1.1616200552567e-08
29	20829	4.81	1.0706752462397e-08
29	21385	4.91	9.7249372998931e-09
29	21950	5.01	8.7036538332086e-09
29	22507	5.11	7.6705282481271e-09
29	23064	5.21	0.34748369183249
29	23621	5.31	0.68360073940392
29	24178	5.41	0.99798972294699
29	24735	5.51	1.2817346984427
29	25292	5.61	1.5
29	25849	5.71	1.5
29	26406	5.81	1.5
29	26963	5.91	1.5
29	27528	6.01	1.5
29	28085	6.11	1.5
29	28642	6.21	1.5
29	29199	6.31	1.5
29	29756	6.41	1.5
29	30313	6.51	1.5
29	30870	6.61	1.440372095901
29	31427	6.71	1.1753427743009
29	31984	6.81	0.87414389001099
29	32541	6.91	0.54416859827476
29	33106	7.01	0.19305821878329
29	33663	7.11	-0.17142491928583
29	34220	7.21	-0.54152156228006
29	34777	7.31	-0.90959545119426
29	35334	7.41	-1.2682479643278
29	35891	7.51	-1.4971135094722
29	36448	7.61	-1.4974265246247
29	37005	7.71	-1.4977513738758
29	37562	7.81	-1.4980813234673
29	38119	7.91	-1.4984111900035
29	38684	8.01	-1.4987370269914
29	39241	8.11	-1.4990558720682
29	39798	8.21	-1.499365543428
29	40355	8.31	-1.4996644761022
29	40912	8.41	-1.4999515904944
29	41469	8.51	-1.5002261869994
29	42026	8.61	-1.5004878616933
29	42583	8.71	-1.5007364390267
29	43140	8.81	-1.5009719182242
29	43697	8.91	-1.5011944307167
29	44262	9.01	-1.5014042064428
29	44819	9.11	-1.5016015472692
29	45376	9.21	-1.5017868061144
29	45933	9.31	-1.5019603706345
29	46490	9.41	-1.5021226505494
29	47047	9.51	-1.5022740555057
29	47604	9.61	-1.1224556801509
29	48161	9.71	-0.68727786848736
29	48718	9.81	-0.24377405582666
29	49275	9.91	0.19745077035365
29	49840	10.01	0.62658444054839
29	50397	10.11	1.0346777417447
29	50954	10.21	1.4137040649134
29	51511	10.31	1.4984731727606
29	52068	10.41	1.4987759281792
29	52625	10.51	1.4990824093514
29	53182	10.61	1.4993873666572
[...]
101	115290	21.741827716357	0.100012761011
101	115847	21.841827477498	0.099999761141
101	116404	21.941827238776	0.099999761278
101	116969	22.041827000189	0.099999761413
101	117526	22.141826761736	0.099999761547
101	118083	22.241826523408	0.099999761672
101	118640	22.341826285193	0.099999761785
101	119197	22.441826047072	0.099999761879
101	119754	22.541825809024	0.099999761952
101	120311	22.641825571026	0.099999762002
101	120868	22.741825333053	0.099999762027
101	121425	22.841825095081	0.099999762028
101	121982	22.941824857088	0.099999762007
101	122547	23.041824619058	0.09999976197
101	123104	23.141824380978	0.09999976192
101	123661	23.241824142835	0.099999761857
101	124218	23.341823904618	0.099999761783
101	124775	23.441823666319	0.099999761701
101	125332	23.541823427928	0.099999761609
101	125889	23.641823189442	0.099999761514
101	126446	23.741822950853	0.099999761411
101	127003	23.841822712158	0.099999761305
101	127560	23.941822473348	0.09999976119
101	128125	24.041822234421	0.099999761073
101	128682	24.141821995371	0.09999976095
101	129239	24.241821756198	0.099999760827
101	129796	24.341821516893	0.099999760695
101	130353	24.441821277457	0.099999760564
101	130910	24.541821037884	0.099999760427
101	131467	24.641820798181	0.099999760297
101	132024	24.741820558352	0.099999760171
101	132581	24.841820318415	0.099999760063
101	133138	24.941820078382	0.099999759967
101	133703	25.041819838279	0.099999759897
101	134260	25.141819598128	0.099999759849
101	134817	25.241819357955	0.099999759827
101	135374	25.341819117783	0.099999759828
101	135931	25.441818877633	0.09999975985
101	136488	25.541818637521	0.099999759888
101	137045	25.641818397464	0.099999759943
101	137602	25.741818157475	0.099999760011
101	138159	25.841817917564	0.099999760089
101	138716	25.941817677735	0.099999760171
101	139281	26.041817438003	0.099999760268
101	139838	26.141817198369	0.099999760366
101	140395	26.241816958843	0.099999760474
101	140952	26.34181671943	0.099999760587
101	141509	26.441816480134	0.099999760704
101	142066	26.541816240959	0.099999760825
101	142623	26.641816001912	0.099999760953
101	143180	26.741815762993	0.099999761081
101	143737	26.841815524206	0.099999761213
101	144294	26.941815285557	0.099999761351
101	144859	27.041815047046	0.099999761489
101	145416	27.141827808669	0.100012761623
101	145973	27.24182757042	0.099999761751
101	146530	27.341827332285	0.099999761865
101	147087	27.441827094244	0.099999761959
101	147644	27.54182685628	0.099999762036
101	148201	27.641826618366	0.099999762086
101	148758	27.741826380478	0.099999762112
101	149315	27.841826142593	0.099999762115
101	149872	27.941825904689	0.099999762096
101	150437	28.041825666749	0.09999976206
101	150994	28.141825428758	0.099999762009
101	151551	28.241825190707	0.099999761949
101	152108	28.341824952582	0.099999761875
101	152665	28.441824714376	0.099999761794
101	153222	28.541824476082	0.099999761706
101	153779	28.641824237693	0.099999761611
101	154336	28.741823999202	0.099999761509
101	154893	28.841823760605	0.099999761403
101	155450	28.941823521896	0.099999761291
101	156015	29.04182328307	0.099999761174
101	156572	29.141823044123	0.099999761053
101	157129	29.24182280505	0.099999760927
101	157686	29.341822565851	0.099999760801
101	158243	29.44182232652	0.099999760669
101	158800	29.541822087056	0.099999760536
101	159357	29.64182184746	0.099999760404
101	159914	29.741821607741	0.099999760281
101	160471	29.841821367913	0.099999760172
101	161028	29.941821127994	0.099999760081
101	161593	30.041820888003	0.099999760009
101	162150	30.14182064796	0.099999759957
101	162707	30.241820407864	0.099999759904
101	163264	30.341820167717	0.099999759853
101	163821	30.441819927521	0.099999759804
101	164378	30.541819687282	0.099999759761
101	164935	30.641819447025	0.099999759743
101	165492	30.74181920676	0.099999759735
101	166049	30.841818966498	0.099999759738
101	166606	30.941818726249	0.099999759751
101	167171	31.041818486022	0.099999759773
101	167728	31.141818245823	0.099999759801
101	168285	31.241818005657	0.099999759834
101	168842	31.341817765531	0.099999759874
101	169399	31.441817525448	0.099999759917
101	169956	31.54181728541	0.099999759962
101	170513	31.641817045421	0.099999760011
101	171070	31.741816805484	0.099999760063
101	171627	31.841816565601	0.099999760117
101	172184	31.941816325773	0.099999760172
101	172749	32.041816086001	0.099999760228
101	173306	32.141815846277	0.099999760276
101	173863	32.241815606583	0.099999760306
101	174420	32.341815366889	0.099999760306
101	174977	32.441815127143	0.099999760254
101	175534	32.541814887278	0.099999760135
101	176091	32.641827647205	0.100012759927
101	176648	32.741827406814	0.099999759609
101	177205	32.841827165994	0.09999975918
101	177762	32.941826924621	0.099999758627
101	178327	33.041826682563	0.099999757942
101	178884	33.141826439695	0.099999757132
101	179441	33.241826195884	0.099999756189
101	179998	33.341825950995	0.099999755111
101	180555	33.441825704896	0.099999753901
101	181112	33.541825457452	0.099999752556
101	181669	33.641825208532	0.09999975108
101	182226	33.741824957999	0.099999749467
101	182783	33.841824705727	0.099999747728
101	183340	33.941824451584	0.099999745857
101	183905	34.041824195439	0.099999743855
101	184462	34.141823937168	0.099999741729
101	185019	34.241823676645	0.099999739477
101	185576	34.341823413747	0.099999737102
101	186133	34.441823148352	0.099999734605
101	186690	34.541822880342	0.09999973199
101	187247	34.641822609609	0.099999729267
101	187804	34.741822336046	0.099999726437
101	188361	34.841822059557	0.099999723511
101	188918	34.941821780051	0.099999720494
101	189483	35.041821497447	0.099999717396
101	190040	35.141821211665	0.099999714218
101	190597	35.24182092263	0.099999710965
101	191154	35.341820630283	0.099999707653
101	191711	35.441820334573	0.09999970429
101	192268	35.541820035457	0.099999700884
101	192825	35.641819732902	0.099999697445
102	904	1.240527161496	0.099999761219
102	1460	1.340526922715	0.099999761219
102	2016	1.440526683934	0.099999761219
102	2572	1.540526445153	0.099999761219
102	3128	1.640526206372	0.099999761219
102	3684	1.740525967591	0.099999761219
102	4240	1.84053872881	0.100012761219
102	4796	1.940538490029	0.099999761219
102	5360	2.040538251248	0.099999761219
102	5916	2.140538012467	0.099999761219
102	6472	2.240537773686	0.099999761219
102	7028	2.340537534905	0.099999761219
102	7584	2.440537296124	0.099999761219
102	8140	2.540537057343	0.099999761219
102	8696	2.640536818562	0.099999761219
102	9252	2.740536579781	0.099999761219
102	9808	2.840536341	0.099999761219
102	10364	2.940536102219	0.099999761219
102	10928	3.040535863438	0.099999761219
102	11484	3.140535624657	0.099999761219
102	12040	3.240535385876	0.099999761219
102	12596	3.340535147095	0.099999761219
102	13152	3.440534908314	0.099999761219
102	13708	3.540534669533	0.099999761219
102	14264	3.640534430752	0.099999761219
102	14820	3.740534191971	0.099999761219
102	15376	3.84053395319	0.099999761219
102	15932	3.940533714409	0.099999761219
102	16496	4.040533475628	0.099999761219
102	17052	4.140533236847	0.099999761219
102	17608	4.240532998066	0.099999761219
102	18164	4.340532759285	0.099999761219
102	18720	4.440532520504	0.099999761219
102	19276	4.540532281723	0.099999761219
102	19832	4.640532042942	0.099999761219
102	20388	4.740531804161	0.099999761219
102	20944	4.84053156538	0.099999761219
102	21500	4.940531326599	0.099999761219
102	22065	5.040531087818	0.099999761219
102	22622	5.140530849037	0.099999761219
102	23179	5.240530610256	0.099999761219
102	23736	5.340530371479	0.099999761223
102	24293	5.440530132712	0.099999761233
102	24850	5.54052989397	0.099999761258
102	25407	5.640529655264	0.099999761294
102	25964	5.740529416614	0.09999976135
102	26521	5.840529178032	0.099999761418
102	27078	5.940528939533	0.099999761501
102	27643	6.040528701128	0.099999761595
102	28200	6.140528462827	0.099999761699
102	28757	6.240528224638	0.099999761811
102	29314	6.340527986567	0.099999761929
102	29871	6.44052774862	0.099999762053
102	30428	6.540527510804	0.099999762184
102	30985	6.640527273122	0.099999762318
102	31542	6.740527035577	0.099999762455
102	32099	6.840526798168	0.099999762591
102	32656	6.940526560896	0.099999762728
102	33221	7.040526323749	0.099999762853
102	33778	7.140526086717	0.099999762968
102	34335	7.240525849785	0.099999763068
102	34892	7.340538612932	0.100012763147
102	35449	7.440538376139	0.099999763207
102	36006	7.540538139381	0.099999763242
102	36563	7.640537902636	0.099999763255
102	37120	7.740537665881	0.099999763245
102	37677	7.840537429097	0.099999763216
102	38234	7.940537192269	0.099999763172
102	38799	8.040536955382	0.099999763113
102	39356	8.140536718424	0.099999763042
102	39913	8.240536481392	0.099999762968
102	40470	8.340536244272	0.09999976288
102	41027	8.440536007058	0.099999762786
102	41584	8.540535769745	0.099999762687
102	42141	8.640535532325	0.09999976258
102	42692	8.740535294793	0.099999762468
102	43249	8.840535057145	0.099999762352
102	43806	8.940534819376	0.099999762231
102	44371	9.040534581482	0.099999762106
102	44928	9.140534343456	0.099999761974
102	45485	9.240534105296	0.09999976184
102	46042	9.340533867003	0.099999761707
102	46599	9.440533628568	0.099999761565
102	47156	9.540533389988	0.09999976142
102	47713	9.640533151261	0.099999761273
102	48270	9.740532912386	0.099999761125
102	48827	9.84053267337	0.099999760984
102	49384	9.940532434227	0.099999760857
102	49949	10.04053219497	0.099999760743
102	50506	10.140531955621	0.099999760651
102	51063	10.240531716205	0.099999760584
102	51620	10.340531476748	0.099999760543
102	52177	10.440531237276	0.099999760528
102	52734	10.540530997811	0.099999760535
102	53291	10.640530758368	0.099999760557
102	53848	10.740530518966	0.099999760598
102	54405	10.840530279615	0.099999760649
102	54962	10.940530040327	0.099999760712
102	55527	11.040529801115	0.099999760788
102	56084	11.140529561984	0.099999760869
102	56641	11.24052932294	0.099999760956
102	57204	11.340529083993	0.099999761053
102	57761	11.440528845148	0.099999761155
102	58318	11.54052860641	0.099999761262
102	58875	11.640528367784	0.099999761374
102	59432	11.740528129271	0.099999761487
102	59989	11.840527890879	0.099999761608
102	60546	11.940527652611	0.099999761732
102	61111	12.04052741447	0.099999761859
102	61668	12.140527176454	0.099999761984
102	62225	12.24052693856	0.099999762106
102	62782	12.340526700774	0.099999762214
102	63339	12.440526463082	0.099999762308
102	63896	12.540526225462	0.09999976238
102	64453	12.640525987892	0.09999976243
102	65010	12.740538750346	0.100012762454
102	65567	12.8405385128	0.099999762454
102	66124	12.940538275234	0.099999762434
102	66689	13.040538037626	0.099999762392
102	67246	13.140537799962	0.099999762336
102	67803	13.24053756223	0.099999762268
102	68360	13.340537324419	0.099999762189
102	68917	13.44053708652	0.099999762101
102	69474	13.540536848523	0.099999762003
102	70031	13.640536610424	0.099999761901
102	70588	13.740536372214	0.09999976179
102	71145	13.840536133889	0.099999761675
102	71702	13.940535895441	0.099999761552
102	72261	14.040535656869	0.099999761428
102	72818	14.140535418168	0.099999761299
102	73375	14.240535179334	0.099999761166
102	73932	14.340534940361	0.099999761027
102	74489	14.440534701249	0.099999760888
102	75046	14.540534461993	0.099999760744
102	75603	14.640534222591	0.099999760598
102	76160	14.74053398305	0.099999760459
102	76717	14.840533743376	0.099999760326
102	77274	14.940533503585	0.099999760209
102	77839	15.040533263698	0.099999760113
102	78396	15.140533023735	0.099999760037
102	78953	15.240532783723	0.099999759988
102	79510	15.340532543687	0.099999759964
102	80067	15.440532303652	0.099999759965
102	80624	15.540532063636	0.099999759984
102	81181	15.640531823656	0.09999976002
102	81738	15.740531583727	0.099999760071
102	82295	15.840531343858	0.099999760131
102	82852	15.940531104062	0.099999760204
102	83417	16.040530864348	0.099999760286
102	83980	16.140530624723	0.099999760375
102	84537	16.240530385194	0.099999760471
102	85094	16.340530145766	0.099999760572
102	85651	16.440529906445	0.099999760679
102	86208	16.540529667236	0.099999760791
102	86765	16.640529428144	0.099999760908
102	87322	16.740529189175	0.099999761031
102	87879	16.840528950328	0.099999761153
102	88436	16.940528711613	0.099999761285
102	89001	17.040528473031	0.099999761418
102	89558	17.140528234581	0.09999976155
102	90115	17.240527996259	0.099999761678
102	90672	17.340527758056	0.099999761797
102	91229	17.440527519954	0.099999761898
102	91786	17.540527281936	0.099999761982
102	92343	17.64052704398	0.099999762044
102	92900	17.740526806059	0.099999762079
102	93457	17.84052656815	0.099999762091
102	94014	17.940526330226	0.099999762076
102	94579	18.040526092271	0.099999762045
102	95136	18.14052585427	0.099999761999
102	95693	18.240538616209	0.100012761939
102	96250	18.340538378077	0.099999761868
102	96807	18.440538139863	0.099999761786
102	97364	18.54053790156	0.099999761697
102	97921	18.640537663161	0.099999761601
102	98478	18.740537424659	0.099999761498
102	99035	18.840537186048	0.099999761389
102	99592	18.94053694732	0.099999761272
102	100151	19.040536708476	0.099999761156
102	100708	19.140536469507	0.099999761031
102	101265	19.240536230411	0.099999760904
102	101822	19.340535991185	0.099999760774
102	102379	19.440535751823	0.099999760638
102	102936	19.540535512324	0.099999760501
102	103493	19.640535272685	0.099999760361
102	104050	19.740535032912	0.099999760227
102	104607	19.840534793014	0.099999760102
102	105164	19.940534553007	0.099999759993
102	105729	20.040534312911	0.099999759904
102	106286	20.140534072749	0.099999759838
102	106843	20.240533832544	0.099999759795
102	107400	20.340533592324	0.09999975978
102	107957	20.440533352109	0.099999759785
102	108514	20.540533111922	0.099999759813
102	109071	20.640532871778	0.099999759856
102	109628	20.74053263169	0.099999759912
102	110185	20.84053239167	0.09999975998
102	110742	20.94053215173	0.09999976006
102	111307	21.040531911877	0.099999760147
102	111870	21.140531672117	0.09999976024
102	112427	21.240531432459	0.099999760342
102	112984	21.340531192908	0.099999760449
102	113541	21.440530953468	0.09999976056
102	114098	21.540530714146	0.099999760678
102	114655	21.640530474945	0.099999760799
102	115212	21.740530235873	0.099999760928
102	115769	21.84052999693	0.099999761057
102	116326	21.940529758122	0.099999761192
102	116891	22.040529519449	0.099999761327
102	117448	22.140529280914	0.099999761465
102	118005	22.240529042511	0.099999761597
102	118562	22.340528804231	0.09999976172
102	119119	22.440528566059	0.099999761828
102	119676	22.540528327974	0.099999761915
102	120233	22.640528089956	0.099999761982
102	120790	22.740527851979	0.099999762023
102	121347	22.840527614017	0.099999762038
102	121904	22.940527376046	0.099999762029
102	122469	23.040527138048	0.099999762002
102	123026	23.140526900008	0.09999976196
102	123583	23.240526661912	0.099999761904
102	124140	23.340526423749	0.099999761837
102	124697	23.440526185507	0.099999761758
102	125254	23.54052594718	0.099999761673
102	125811	23.64053870876	0.10001276158
102	126368	23.74053847024	0.09999976148
102	126925	23.840538231616	0.099999761376
102	127482	23.940537992881	0.099999761265
102	128041	24.040537754031	0.09999976115
102	128598	24.140537515059	0.099999761028
102	129155	24.240537275966	0.099999760907
102	129712	24.340537036743	0.099999760777
102	130269	24.440536797389	0.099999760646
102	130826	24.540536557898	0.099999760509
102	131383	24.640536318273	0.099999760375
102	131940	24.740536078516	0.099999760243
102	132497	24.840535838638	0.099999760122
102	133054	24.940535598654	0.099999760016
102	133619	25.040535358583	0.099999759929
102	134176	25.14053511845	0.099999759867
102	134733	25.240534878277	0.099999759827
102	135290	25.340534638091	0.099999759814
102	135847	25.440534397915	0.099999759824
102	136404	25.540534157767	0.099999759852
102	136961	25.640533917666	0.099999759899
102	137518	25.740533677626	0.09999975996
102	138075	25.840533437658	0.099999760032
102	138632	25.940533197767	0.099999760109
102	139197	26.040532957969	0.099999760202
102	139754	26.140532718266	0.099999760297
102	140317	26.240532478667	0.099999760401
102	140874	26.340532239178	0.099999760511
102	141431	26.440531999805	0.099999760627
102	141988	26.540531760551	0.099999760746
102	142545	26.640531521421	0.09999976087
102	143102	26.740531282419	0.099999760998
102	143659	26.840531043548	0.099999761129
102	144216	26.940530804812	0.099999761264
102	144781	27.040530566215	0.099999761403
102	145338	27.140530327757	0.099999761542
102	145895	27.240530089432	0.099999761675
102	146452	27.340529851233	0.099999761801
102	147009	27.440529613141	0.099999761908
102	147566	27.54052937514	0.099999761999
102	148123	27.640529137206	0.099999762066
102	148680	27.740528899312	0.099999762106
102	149237	27.840528661437	0.099999762125
102	149794	27.940528423555	0.099999762118
102	150359	28.040528185647	0.099999762092
102	150916	28.140527947698	0.099999762051
102	151473	28.240527709693	0.099999761995
102	152030	28.340527471622	0.099999761929
102	152587	28.440527233474	0.099999761852
102	153144	28.540526995243	0.099999761769
102	153701	28.64052675692	0.099999761677
102	154258	28.740526518498	0.099999761578
102	154815	28.840526279973	0.099999761475
102	155372	28.940526041338	0.099999761365
102	155931	29.040538802589	0.100012761251
102	156488	29.14053856372	0.099999761131
102	157045	29.240538324728	0.099999761008
102	157602	29.340538085611	0.099999760883
102	158159	29.440537846362	0.099999760751
102	158716	29.54053760698	0.099999760618
102	159273	29.640537367462	0.099999760482
102	159830	29.740537127815	0.099999760353
102	160387	29.840536888048	0.099999760233
102	160944	29.940536648176	0.099999760128
102	161509	30.040536408218	0.099999760042
102	162066	30.140536168192	0.099999759974
102	162623	30.240535928097	0.099999759905
102	163180	30.340535687937	0.09999975984
102	163737	30.440535447714	0.099999759777
102	164294	30.54053520744	0.099999759726
102	164851	30.640534967139	0.099999759699
102	165408	30.740534726824	0.099999759685
102	165965	30.840534486505	0.099999759681
102	166522	30.940534246195	0.09999975969
102	167087	31.040534005902	0.099999759707
102	167644	31.140533765633	0.099999759731
102	168201	31.240533525395	0.099999759762
102	168758	31.340533285194	0.099999759799
102	169315	31.440533045033	0.099999759839
102	169872	31.540532804916	0.099999759883
102	170429	31.640532564846	0.09999975993
102	170986	31.740532324826	0.09999975998
102	171543	31.840532084857	0.099999760031
102	172100	31.940531844944	0.099999760087
102	172665	32.040531605087	0.099999760143
102	173222	32.140531365281	0.099999760194
102	173779	32.240531125512	0.099999760231
102	174336	32.340530885753	0.099999760241
102	174893	32.440530645957	0.099999760204
102	175450	32.540530406054	0.099999760097
102	176007	32.640530165961	0.099999759907
102	176564	32.740529925566	0.099999759605
102	177121	32.840529684756	0.09999975919
102	177678	32.940529443405	0.099999758649
102	178243	33.04052920138	0.099999757975
102	178800	33.140528958553	0.099999757173
102	179357	33.240528714788	0.099999756235
102	179914	33.340528469953	0.099999755165
102	180471	33.440528223912	0.099999753959
102	181028	33.540527976532	0.09999975262
102	181585	33.640527727678	0.099999751146
102	182142	33.740527477215	0.099999749537
102	182699	33.840527225014	0.099999747799
102	183256	33.940526970946	0.099999745932
102	183821	34.040526714879	0.099999743933
102	184378	34.140526456686	0.099999741807
102	184935	34.240526196243	0.099999739557
102	185492	34.340525933427	0.099999737184
102	186049	34.440538668116	0.100012734689
102	186606	34.540538400188	0.099999732072
102	187163	34.640538129534	0.099999729346
102	187720	34.740537856042	0.099999726508
102	188277	34.840537579613	0.099999723571
102	188834	34.940537300157	0.099999720544
102	189399	35.040537017585	0.099999717428
102	189956	35.14053673182	0.099999714235
102	190513	35.240536442786	0.099999710966
102	191070	35.340536150427	0.099999707641
102	191627	35.440535854691	0.099999704264
102	192184	35.54053555554	0.099999700849
102	192741	35.640535252941	0.099999697401
