file 898351 1512142279                                          
version 2
run SinusoidalSpeedInjectionAttack-181-20171201-16:31:02-97112
attr CACCSpacing 5
attr attackAcc -30
attr attackPos 7
attr attackSpeed 100
attr attackStart 30
attr attacker 3
attr beaconInterval 0.1
attr configname SinusoidalSpeedInjectionAttack
attr controller 1
attr datetime 20171201-16:31:02
attr experiment SinusoidalSpeedInjectionAttack
attr fakeAcc "(3 == 4)"
attr fakePos "(3 == 2)"
attr fakeSpeed "(3 == 3)"
attr inifile omnetpp_181.ini
attr iterationvars "$attacker=3, $attackSpeed=100, $attackPos=7, $attackAcc=-30, $leaderSpeed=50, $controller=1, $CACCSpacing=5, $sController=\"CACC\", $attackStart=30, $0=5, $1=0, $nCars=8, $platoonSize=8, $nLanes=1, $beaconInterval=0.1, $priority=2, $packetSize=200, $ploegH=0.5, $leaderHeadway=1.2, $fakeSpeed=(3 == 3), $fakeAcc=(3 == 4), $fakePos=(3 == 2)"
attr iterationvarsf attacker=3,attackSpeed=100,attackPos=7,attackAcc=-30,leaderSpeed=50,controller=1,CACCSpacing=5,sController=CACC,attackStart=30,5,0,nCars=8,platoonSize=8,nLanes=1,beaconInterval=0.1,priority=2,packetSize=200,ploegH=0.5,leaderHeadway=1.2,fakeSpeed=(3_==_3),fakeAcc=(3_==_4),fakePos=(3_==_2)-
attr leaderHeadway 1.2
attr leaderSpeed 50
attr measurement "$attacker=3, $attackSpeed=100, $attackPos=7, $attackAcc=-30, $leaderSpeed=50, $controller=1, $CACCSpacing=5, $sController=\"CACC\", $attackStart=30, $0=5, $1=0, $nCars=8, $platoonSize=8, $nLanes=1, $beaconInterval=0.1, $priority=2, $packetSize=200, $ploegH=0.5, $leaderHeadway=1.2, $fakeSpeed=(3 == 3), $fakeAcc=(3 == 4), $fakePos=(3 == 2)"
attr nCars 8
attr nLanes 1
attr network scenario
attr packetSize 200
attr platoonSize 8
attr ploegH 0.5
attr priority 2
attr processid 97112
attr repetition 1
attr replication #1
attr resultdir results
attr runnumber 181
attr sController "\"CACC\""
attr seedset 1
param **.coreDebug false
param **.debug false
param **.headway 0.1s
param **.numberOfCars 8
param **.numberOfCarsPerPlatoon 8
param **.numberOfLanes 1
param **.numericController 1
param **.traffic.nCars 8
param **.traffic.nLanes 1
param **.traffic.platoonInsertDistance 5m
param **.traffic.platoonInsertHeadway 0s
param **.traffic.platoonInsertSpeed 50kmph
param **.traffic.platoonInsertTime "1 s"
param **.traffic.platoonLeaderHeadway 1.2s
param **.traffic.platoonSize 8
param **.traffic.platooningVType "\"vtypeauto\""
param **.traffic_type "\"PlatoonsTrafficManager\""
param *.**.nic.mac1609_4.bitrate 6Mbps
param *.**.nic.mac1609_4.txPower 100mW
param *.**.nic.mac1609_4.useServiceChannel false
param *.**.nic.phy80211p.analogueModels "xmldoc(\"config.xml\")"
param *.**.nic.phy80211p.decider "xmldoc(\"config.xml\")"
param *.**.nic.phy80211p.maxTXPower 100mW
param *.**.nic.phy80211p.sensitivity -94dBm
param *.**.nic.phy80211p.thermalNoise -95dBm
param *.**.nic.phy80211p.usePropagationDelay true
param *.**.nic.phy80211p.useThermalNoise true
param *.annotations.draw false
param *.connectionManager.alpha 2.0
param *.connectionManager.carrierFrequency "5.890e9 Hz"
param *.connectionManager.pMax 100mW
param *.connectionManager.sat -94dBm
param *.connectionManager.sendDirect true
param *.manager.autoShutdown true
param *.manager.commandLine "\"sumo --remote-port $port --seed $seed --configuration-file $configFile\""
param *.manager.configFile "\"./sumocfg/freeway.sumo.cfg\""
param *.manager.host "\"localhost\""
param *.manager.margin 25
param *.manager.moduleDisplayString "\"\""
param *.manager.moduleName "\"node\""
param *.manager.moduleType "\"Car\""
param *.manager.updateInterval 0.01s
param *.node[*].appl.attackStart 30s
param *.node[*].appl.attackerType 3
param *.node[*].appl.simulationDuration "60 s"
param *.node[*].appl_type "\"SimplePlatooningApp\""
param *.node[*].helper.nCars 8
param *.node[*].helper.nLanes 1
param *.node[*].helper.platoonSize 8
param *.node[*].helper_type "\"PositionHelper\""
param *.node[*].mobility.x 0
param *.node[*].mobility.y 0
param *.node[*].mobility.z 1.895
param *.node[*].prot.attackStart 30s
param *.node[*].prot.attackerType 3
param *.node[*].prot.attackingNode 3
param *.node[*].prot.beaconingInterval 0.1s
param *.node[*].prot.fakeAcc "(3 == 4)"
param *.node[*].prot.fakePos "(3 == 2)"
param *.node[*].prot.fakeSpeed "(3 == 3)"
param *.node[*].prot.maliciousAcc "-30 mpss"
param *.node[*].prot.maliciousSpeed 100kmph
param *.node[*].prot.packetSize 200
param *.node[*].prot.priority 2
param *.node[*].prot.shiftX "7 m"
param *.node[*].prot.useControllerAcceleration true
param *.node[*].protocol_type "\"SimplePlatooningBeaconing\""
param *.node[*].scenario.accHeadway 0.1s
param *.node[*].scenario.caccC1 0.5
param *.node[*].scenario.caccOmegaN "0.2 Hz"
param *.node[*].scenario.caccSpacing 5m
param *.node[*].scenario.caccXi 1
param *.node[*].scenario.controller "\"CACC\""
param *.node[*].scenario.engineTau "0.5 s"
param *.node[*].scenario.leaderHeadway 1.2s
param *.node[*].scenario.leaderSpeed 50kmph
param *.node[*].scenario.ploegH 0.5s
param *.node[*].scenario.ploegKd 0.7
param *.node[*].scenario.ploegKp 0.2
param *.node[*].scenario.useRealisticEngine false
param *.node[*].scenario_type "\"SinusoidalScenario\""
param *.node[*].unicast.packetLossRate 0
param *.obstacles.debug false
param *.playgroundSizeX 65000m
param *.playgroundSizeY 25000m
param *.playgroundSizeZ 50m
param *.world.use2D false
param *.world.useTorus false

vector 0  scenario.node[0].appl  distance  ETV
vector 1  scenario.node[0].appl  relativeSpeed  ETV
vector 2  scenario.node[0].appl  nodeId  ETV
vector 6  scenario.node[0].appl  acceleration  ETV
vector 7  scenario.node[0].appl  controllerAcceleration  ETV
vector 3  scenario.node[0].appl  speed  ETV
vector 4  scenario.node[0].appl  posx  ETV
vector 5  scenario.node[0].appl  posy  ETV
vector 22  scenario.node[1].appl  distance  ETV
vector 23  scenario.node[1].appl  relativeSpeed  ETV
vector 24  scenario.node[1].appl  nodeId  ETV
vector 28  scenario.node[1].appl  acceleration  ETV
vector 29  scenario.node[1].appl  controllerAcceleration  ETV
vector 25  scenario.node[1].appl  speed  ETV
vector 26  scenario.node[1].appl  posx  ETV
vector 27  scenario.node[1].appl  posy  ETV
vector 44  scenario.node[2].appl  distance  ETV
vector 45  scenario.node[2].appl  relativeSpeed  ETV
vector 46  scenario.node[2].appl  nodeId  ETV
vector 50  scenario.node[2].appl  acceleration  ETV
vector 51  scenario.node[2].appl  controllerAcceleration  ETV
vector 47  scenario.node[2].appl  speed  ETV
vector 48  scenario.node[2].appl  posx  ETV
vector 49  scenario.node[2].appl  posy  ETV
vector 66  scenario.node[3].appl  distance  ETV
vector 67  scenario.node[3].appl  relativeSpeed  ETV
vector 68  scenario.node[3].appl  nodeId  ETV
vector 72  scenario.node[3].appl  acceleration  ETV
vector 73  scenario.node[3].appl  controllerAcceleration  ETV
vector 69  scenario.node[3].appl  speed  ETV
vector 70  scenario.node[3].appl  posx  ETV
vector 71  scenario.node[3].appl  posy  ETV
vector 88  scenario.node[4].appl  distance  ETV
vector 89  scenario.node[4].appl  relativeSpeed  ETV
vector 90  scenario.node[4].appl  nodeId  ETV
vector 94  scenario.node[4].appl  acceleration  ETV
vector 95  scenario.node[4].appl  controllerAcceleration  ETV
vector 91  scenario.node[4].appl  speed  ETV
vector 92  scenario.node[4].appl  posx  ETV
vector 93  scenario.node[4].appl  posy  ETV
vector 110  scenario.node[5].appl  distance  ETV
vector 111  scenario.node[5].appl  relativeSpeed  ETV
vector 112  scenario.node[5].appl  nodeId  ETV
vector 116  scenario.node[5].appl  acceleration  ETV
vector 117  scenario.node[5].appl  controllerAcceleration  ETV
vector 113  scenario.node[5].appl  speed  ETV
vector 114  scenario.node[5].appl  posx  ETV
vector 115  scenario.node[5].appl  posy  ETV
vector 132  scenario.node[6].appl  distance  ETV
vector 133  scenario.node[6].appl  relativeSpeed  ETV
vector 134  scenario.node[6].appl  nodeId  ETV
vector 138  scenario.node[6].appl  acceleration  ETV
vector 139  scenario.node[6].appl  controllerAcceleration  ETV
vector 135  scenario.node[6].appl  speed  ETV
vector 136  scenario.node[6].appl  posx  ETV
vector 137  scenario.node[6].appl  posy  ETV
vector 154  scenario.node[7].appl  distance  ETV
vector 155  scenario.node[7].appl  relativeSpeed  ETV
vector 156  scenario.node[7].appl  nodeId  ETV
vector 160  scenario.node[7].appl  acceleration  ETV
vector 161  scenario.node[7].appl  controllerAcceleration  ETV
vector 157  scenario.node[7].appl  speed  ETV
vector 158  scenario.node[7].appl  posx  ETV
vector 159  scenario.node[7].appl  posy  ETV
vector 58  scenario.node[2].prot  frontDelay  ETV
vector 56  scenario.node[2].prot  frontDelayId  ETV
vector 102  scenario.node[4].prot  frontDelay  ETV
vector 100  scenario.node[4].prot  frontDelayId  ETV
vector 146  scenario.node[6].prot  frontDelay  ETV
vector 144  scenario.node[6].prot  frontDelayId  ETV
vector 168  scenario.node[7].prot  frontDelay  ETV
vector 166  scenario.node[7].prot  frontDelayId  ETV
vector 124  scenario.node[5].prot  frontDelay  ETV
vector 122  scenario.node[5].prot  frontDelayId  ETV
vector 35  scenario.node[1].prot  leaderDelay  ETV
vector 33  scenario.node[1].prot  leaderDelayId  ETV
vector 36  scenario.node[1].prot  frontDelay  ETV
vector 34  scenario.node[1].prot  frontDelayId  ETV
vector 57  scenario.node[2].prot  leaderDelay  ETV
vector 55  scenario.node[2].prot  leaderDelayId  ETV
vector 79  scenario.node[3].prot  leaderDelay  ETV
vector 77  scenario.node[3].prot  leaderDelayId  ETV
vector 101  scenario.node[4].prot  leaderDelay  ETV
vector 99  scenario.node[4].prot  leaderDelayId  ETV
vector 123  scenario.node[5].prot  leaderDelay  ETV
vector 121  scenario.node[5].prot  leaderDelayId  ETV
vector 145  scenario.node[6].prot  leaderDelay  ETV
vector 143  scenario.node[6].prot  leaderDelayId  ETV
vector 167  scenario.node[7].prot  leaderDelay  ETV
vector 165  scenario.node[7].prot  leaderDelayId  ETV
vector 80  scenario.node[3].prot  frontDelay  ETV
vector 78  scenario.node[3].prot  frontDelayId  ETV
vector 8  scenario.node[0].prot  nodeId  ETV
vector 9  scenario.node[0].prot  busyTime  ETV
vector 10  scenario.node[0].prot  collisions  ETV
vector 30  scenario.node[1].prot  nodeId  ETV
vector 31  scenario.node[1].prot  busyTime  ETV
vector 32  scenario.node[1].prot  collisions  ETV
vector 52  scenario.node[2].prot  nodeId  ETV
vector 53  scenario.node[2].prot  busyTime  ETV
vector 54  scenario.node[2].prot  collisions  ETV
vector 74  scenario.node[3].prot  nodeId  ETV
vector 75  scenario.node[3].prot  busyTime  ETV
vector 76  scenario.node[3].prot  collisions  ETV
vector 96  scenario.node[4].prot  nodeId  ETV
vector 97  scenario.node[4].prot  busyTime  ETV
vector 98  scenario.node[4].prot  collisions  ETV
vector 118  scenario.node[5].prot  nodeId  ETV
vector 119  scenario.node[5].prot  busyTime  ETV
vector 120  scenario.node[5].prot  collisions  ETV
vector 140  scenario.node[6].prot  nodeId  ETV
vector 141  scenario.node[6].prot  busyTime  ETV
vector 142  scenario.node[6].prot  collisions  ETV
vector 162  scenario.node[7].prot  nodeId  ETV
vector 163  scenario.node[7].prot  busyTime  ETV
vector 164  scenario.node[7].prot  collisions  ETV
7	11082 7577 232 176454 1.11 32.71 317 -1.5 1.5 10.74602282122 498.30984018651
6	18659 9932 232 176454 1.11 32.71 317 -1.472274679513 1.4513407705126 12.673997780877 335.5959615835
5	28591 6369 232 176454 1.11 32.71 317 36.55 36.55 11586.35 423481.0925
4	34960 9505 232 176454 1.11 32.71 317 96.994281387196 539.9451183393 101299.13551244 37580017.257859
3	44465 9505 232 176454 1.11 32.71 317 12.59914837223 15.853603639796 4443.8431118032 62529.943578033
1	53970 5101 232 176454 1.11 32.71 317 0 0 0 0
0	59071 5418 232 176454 1.11 32.71 317 -1 -1 -317 317
2	64489 5101 232 176454 1.11 32.71 317 0 0 0 0
10	69590 438 5168 172478 2 32 31 0 0 0 0
9	70028 594 5168 172478 2 32 31 0.023297 0.02625 0.810797 0.021214625209
8	70622 407 5168 172478 2 32 31 0 0 0 0
29	71029 10189 233 176455 1.11 32.71 317 -1.555555192602 1.5570065793937 12.174782553638 518.25183154701
28	81218 10246 233 176455 1.11 32.71 317 -1.4954736405162 1.4761401704378 13.075462440902 344.54558419495
27	91464 6686 233 176455 1.11 32.71 317 36.55 36.55 11586.35 423481.0925
26	98150 9821 233 176455 1.11 32.71 317 87.994281387329 530.8171361734 98439.14710344 35778649.490492
25	107971 9822 233 176455 1.11 32.71 317 12.582739554075 15.862412181803 4442.5754034296 62499.01688746
23	117793 10569 233 176455 1.11 32.71 317 -0.12424054910308 0.12345091765668 1.1409683957922 2.5359356674831
22	128362 9825 233 176455 1.11 32.71 317 4.877619709558 5.1830415406085 1591.9630548353 7996.9287228484
24	138187 5418 233 176455 1.11 32.71 317 1 1 317 317
36	143605 12569 1238 176347 1.297801900626 32.697805840762 315 0.099998473721 0.100011482557 31.50000242047 3.1500004896125
35	156174 12569 1238 176347 1.297801900626 32.697805840762 315 0.099998473721 0.100011482557 31.50000242047 3.1500004896125
34	168743 8501 1238 176347 1.297801900626 32.697805840762 315 1 1 315 315
33	177244 8501 1238 176347 1.297801900626 32.697805840762 315 1 1 315 315
32	185745 438 5169 172479 2 32 31 0 0 0 0
31	186183 625 5169 172479 2 32 31 0.023297 0.02625 0.810797 0.021214625209
30	186808 438 5169 172479 2 32 31 1 1 31 31
51	187246 10187 234 176456 1.11 32.71 317 -1.5092135974097 1.5122039406897 12.504102936454 490.79482607884
50	197433 10247 234 176456 1.11 32.71 317 -1.4841297326063 1.4673660724707 12.993397422709 339.5484463294
49	207680 6686 234 176456 1.11 32.71 317 36.55 36.55 11586.35 423481.0925
48	214366 9822 234 176456 1.11 32.71 317 78.994281387329 521.80326911272 95582.981514898 34030610.737813
47	224188 9818 234 176456 1.11 32.71 317 12.59309520908 15.851008825246 4442.4335854112 62491.447207328
45	234006 10962 234 176456 1.11 32.71 317 -0.010773795666012 0.012241039882397 0.011063393942617 0.013629433359216
44	244968 9797 234 176456 1.11 32.71 317 4.9921308220553 5.0331337372167 1588.1627521811 7956.6951377508
46	254765 5418 234 176456 1.11 32.71 317 2 2 634 1268
58	260183 12596 832 176492 1.212435510355 32.712437930962 316 0.099998473731 0.100011482567 31.600000900941 3.160000185709
57	272779 12575 1244 176353 1.297801930647 32.697805870828 315 0.099998473724 0.100011482561 31.500002420515 3.1500004896215
56	285354 8527 832 176492 1.212435510355 32.712437930962 316 2 2 632 1264
55	293881 8507 1244 176353 1.297801930647 32.697805870828 315 2 2 630 1260
54	302388 438 5170 172480 2 32 31 0 0 0 0
53	302826 625 5170 172480 2 32 31 0.023296 0.02625 0.810796 0.021214578616
52	303451 438 5170 172480 2 32 31 2 2 62 124
73	303889 10164 235 176457 1.11 32.71 317 -1.4954488815774 1.4986508547754 12.66200738472 475.9864207286
72	314053 10227 235 176457 1.11 32.71 317 -1.4697266269408 1.4522561960337 12.879227470369 333.01649414342
71	324280 6686 235 176457 1.11 32.71 317 36.55 36.55 11586.35 423481.0925
70	330966 9824 235 176457 1.11 32.71 317 69.994281387329 512.77693829629 92726.935163117 32334225.541944
69	340790 9815 235 176457 1.11 32.71 317 12.60788621176 15.836008806661 4442.1658642812 62479.347431636
67	350605 10814 235 176457 1.11 32.71 317 -0.02193620377763 0.021653877994089 0.13778715585627 0.043199273048137
66	361419 9799 235 176457 1.11 32.71 317 4.9809316343225 5.0520779269416 1588.0409973588 7955.5410206928
68	371218 5418 235 176457 1.11 32.71 317 3 3 951 2853
80	376636 12577 1312 176422 1.307223960668 32.707214900936 315 0.099998473729 0.10001148239 31.499989420602 3.1499978895095
79	389213 12581 1250 176359 1.297801960667 32.697805900936 315 0.09999847373 0.100011482564 31.500002420603 3.1500004896391
78	401794 8507 1312 176422 1.307223960668 32.707214900936 315 3 3 945 2835
77	410301 8507 1250 176359 1.297801960667 32.697805900936 315 3 3 945 2835
76	418808 438 5171 172481 2 32 31 0 0 0 0
75	419246 625 5171 172481 2 32 31 0.023297 0.02625 0.810797 0.021214625209
74	419871 438 5171 172481 2 32 31 3 3 93 279
117	420309 10517 237 176459 1.11 32.71 317 -1.5284774903854 3.7621304598565 58.856757656394 689.62772273657
116	430826 10453 237 176459 1.11 32.71 317 -1.4661745218426 2.5 42.965007694206 428.65921231794
115	441279 7003 237 176459 1.11 32.71 317 36.55 36.55 11586.35 423481.0925
114	448282 10141 237 176459 1.11 32.71 317 51.994283294678 498.57446745777 87049.617574848 29128976.339315
113	458423 10139 237 176459 1.11 32.71 317 12.612361431771 18.130613368774 4481.1856894547 63675.285458341
111	468562 11009 237 176459 1.11 32.71 317 -0.02020616952422 0.66727575495891 11.276514944194 5.3406270757291
110	479571 10136 237 176459 1.11 32.71 317 4.9769313455305 6.1393148154147 1600.9653962099 8094.893162394
112	489707 5735 237 176459 1.11 32.71 317 5 5 1585 7925
124	495442 12888 1178 176287 1.297388780543 32.697379739759 315 0.099998475119 0.100011482451 31.49998943955 3.1499978932991
123	508330 12889 1262 176371 1.297802020709 32.697805948507 315 0.099998472765 0.100011482566 31.500002408132 3.1500004871449
122	521219 8821 1178 176287 1.297388780543 32.697379739759 315 5 5 1575 7875
121	530040 8823 1262 176371 1.297802020709 32.697805948507 315 5 5 1575 7875
120	538863 469 5173 172483 2 32 31 0 0 0 0
119	539332 656 5173 172483 2 32 31 0.023297 0.02625 0.810797 0.021214625209
118	539988 469 5173 172483 2 32 31 5 5 155 775
139	540457 10515 238 176460 1.11 32.71 317 -1.4999727101691 2.6424863079378 37.065874510184 558.64133994182
138	550972 10555 238 176460 1.11 32.71 317 -1.4605505414469 2.3612119643719 33.518590165357 391.45632972205
137	561527 7003 238 176460 1.11 32.71 317 36.55 36.55 11586.35 423481.0925
136	568530 10133 238 176460 1.11 32.71 317 42.994283294678 488.15310683727 84179.735232833 27572495.407956
135	578663 10141 238 176460 1.11 32.71 317 12.618659957957 17.200698152997 4466.6439350796 63216.189663604
133	588804 11042 238 176460 1.11 32.71 317 -0.021561676326057 0.91681066245539 14.112104298113 9.0889355118288
132	599846 10110 238 176460 1.11 32.71 317 4.9964405635409 6.4027623161915 1601.5915069273 8103.7604184127
134	609956 5735 238 176460 1.11 32.71 317 6 6 1902 11412
146	615691 12879 970 176079 1.248712630439 32.648703570036 315 0.099998473813 0.100011482458 31.499989419931 3.1499978893753
145	628570 12868 1268 176377 1.29780205073 32.697805983207 315 0.099998473068 0.100011482569 31.500002412811 3.1500004880807
144	641438 8815 970 176079 1.248712630439 32.648703570036 315 6 6 1890 11340
143	650253 8813 1268 176377 1.29780205073 32.697805983207 315 6 6 1890 11340
142	659066 469 5174 172484 2 32 31 0 0 0 0
141	659535 656 5174 172484 2 32 31 0.023297 0.02625 0.810797 0.021214625209
140	660191 469 5174 172484 2 32 31 6 6 186 1116
161	660660 10505 239 176461 1.11 32.71 317 -1.509393506231 2.1028615428659 27.312900334089 526.58890657209
160	671165 10566 239 176461 1.11 32.71 317 -1.4619692834163 1.9955740280949 24.710007953892 361.93980996118
159	681731 7003 239 176461 1.11 32.71 317 36.55 36.55 11586.35 423481.0925
158	688734 10137 239 176461 1.11 32.71 317 33.994282817841 478.0224928491 81314.758396745 26072331.8786
157	698871 10140 239 176461 1.11 32.71 317 12.616458901466 16.330355702171 4455.0311330983 62859.263895185
155	709011 11047 239 176461 1.11 32.71 317 -0.021825727567101 0.86117023212408 11.277616079693 6.7746167847511
154	720058 10147 239 176461 1.11 32.71 317 4.9915517824016 6.1132071391486 1596.7445800491 8049.2098619076
156	730205 5735 239 176461 1.11 32.71 317 7 7 2219 15533
168	735940 12881 1040 176143 1.26389366046 32.663884603683 315 0.099998474096 0.100011482459 31.499989423557 3.1499978901005
167	748821 12884 1274 176383 1.29780208075 32.697806016941 315 0.099998473354 0.100011482568 31.500002416525 3.1500004888235
166	761705 8815 1040 176143 1.26389366046 32.663884603683 315 7 7 2205 15435
165	770520 8820 1274 176383 1.29780208075 32.697806016941 315 7 7 2205 15435
164	779340 469 5175 172485 2 32 31 0 0 0 0
163	779809 656 5175 172485 2 32 31 0.023297 0.02625 0.810797 0.021214625209
162	780465 469 5175 172485 2 32 31 7 7 217 1519
88	780934 9819 236 176532 1.11 32.73 318 0 5.0167039790225 1541.1325885623 7629.4405061846
89	790753 10801 236 176532 1.11 32.73 318 -3.7020338423114 0.015827597329503 -54.628856813958 139.25071423708
90	801554 5436 236 176532 1.11 32.73 318 4 4 1272 5088
91	806990 9868 236 176532 1.11 32.73 318 12.610603257236 18.857180725945 4511.8210757041 64405.725899948
92	816858 9851 236 176532 1.11 32.73 318 60.994281387329 509.10486906416 90427.923404233 30995640.889283
93	826709 6708 236 176532 1.11 32.73 318 36.55 36.55 11622.9 424816.995
94	833417 10118 236 176532 1.11 32.73 318 -1.4671620223636 2.5 52.098461231054 456.53788588222
95	843535 10208 236 176532 1.11 32.73 318 -1.5015734358673 5.9171016474234 105.35509801752 1024.1495132846
96	853743 438 5172 172482 2 32 31 4 4 124 496
97	854181 625 5172 172482 2 32 31 0.023297 0.02625 0.810797 0.021214625209
98	854806 438 5172 172482 2 32 31 0 0 0 0
99	855244 8508 1256 176365 1.297801990688 32.697805914686 315 4 4 1260 5040
100	863752 8828 902 176005 1.235039570397 32.635043501801 315 4 4 1260 5040
101	872580 12889 1256 176365 1.297801990688 32.697805914686 315 0.099998472548 0.100011482566 31.500002404332 3.1500004863849
102	885469 12882 902 176005 1.235039570397 32.635043501801 315 0.099998473312 0.100011482572 31.500002411738 3.1500004878661
