file 1682016 1501769624                                         
version 2
run SinusoidalJammingDetail-904-20170803-16:13:14-7060
attr CACCSpacing 5
attr attackAcc -30
attr attackPos 7
attr attackSpeed 150
attr attackStart 30
attr attacker 1
attr beaconInterval 0.1
attr configname SinusoidalJammingDetail
attr controller 2
attr datetime 20170803-16:13:14
attr experiment SinusoidalJammingDetail
attr fakeAcc "(1 == 4)"
attr fakePos "(1 == 2)"
attr fakeSpeed "(1 == 3)"
attr inifile omnetpp_904.ini
attr iterationvars "$leaderSpeed=120, $controller=2, $CACCSpacing=5, $sController=\"PLOEG\", $attacker=1, $attackStart=30, $attackSpeed=150, $attackPos=7, $attackAcc=-30, $0=5, $1=0.5, $nCars=8, $platoonSize=8, $nLanes=1, $beaconInterval=0.1, $priority=2, $packetSize=200, $ploegH=0.5, $leaderHeadway=1.2, $fakeSpeed=(1 == 3), $fakeAcc=(1 == 4), $fakePos=(1 == 2)"
attr iterationvarsf leaderSpeed=120,controller=2,CACCSpacing=5,sController=PLOEG,attacker=1,attackStart=30,attackSpeed=150,attackPos=7,attackAcc=-30,5,0.5,nCars=8,platoonSize=8,nLanes=1,beaconInterval=0.1,priority=2,packetSize=200,ploegH=0.5,leaderHeadway=1.2,fakeSpeed=(1_==_3),fakeAcc=(1_==_4),fakePos=(1_==_2)-
attr leaderHeadway 1.2
attr leaderSpeed 120
attr measurement "$leaderSpeed=120, $controller=2, $CACCSpacing=5, $sController=\"PLOEG\", $attacker=1, $attackStart=30, $attackSpeed=150, $attackPos=7, $attackAcc=-30, $0=5, $1=0.5, $nCars=8, $platoonSize=8, $nLanes=1, $beaconInterval=0.1, $priority=2, $packetSize=200, $ploegH=0.5, $leaderHeadway=1.2, $fakeSpeed=(1 == 3), $fakeAcc=(1 == 4), $fakePos=(1 == 2)"
attr nCars 8
attr nLanes 1
attr network scenario
attr packetSize 200
attr platoonSize 8
attr ploegH 0.5
attr priority 2
attr processid 7060
attr repetition 4
attr replication #4
attr resultdir results
attr runnumber 904
attr sController "\"PLOEG\""
attr seedset 4
param **.coreDebug false
param **.debug false
param **.headway 0.1s
param **.numberOfCars 8
param **.numberOfCarsPerPlatoon 8
param **.numberOfLanes 1
param **.numericController 2
param **.traffic.nCars 8
param **.traffic.nLanes 1
param **.traffic.platoonInsertDistance 5m
param **.traffic.platoonInsertHeadway 0.5s
param **.traffic.platoonInsertSpeed 120kmph
param **.traffic.platoonInsertTime "1 s"
param **.traffic.platoonLeaderHeadway 1.2s
param **.traffic.platoonSize 8
param **.traffic.platooningVType "\"vtypeauto\""
param **.traffic_type "\"PlatoonsTrafficManager\""
param *.**.nic.mac1609_4.bitrate 6Mbps
param *.**.nic.mac1609_4.txPower 100mW
param *.**.nic.mac1609_4.useServiceChannel false
param *.**.nic.phy80211p.analogueModels "xmldoc(\"config.xml\")"
param *.**.nic.phy80211p.decider "xmldoc(\"config.xml\")"
param *.**.nic.phy80211p.maxTXPower 100mW
param *.**.nic.phy80211p.sensitivity -94dBm
param *.**.nic.phy80211p.thermalNoise -95dBm
param *.**.nic.phy80211p.usePropagationDelay true
param *.**.nic.phy80211p.useThermalNoise true
param *.annotations.draw false
param *.connectionManager.alpha 2.0
param *.connectionManager.carrierFrequency "5.890e9 Hz"
param *.connectionManager.pMax 100mW
param *.connectionManager.sat -94dBm
param *.connectionManager.sendDirect true
param *.manager.autoShutdown true
param *.manager.commandLine "\"sumo --remote-port $port --seed $seed --configuration-file $configFile\""
param *.manager.configFile "\"./sumocfg/freeway.sumo.cfg\""
param *.manager.host "\"localhost\""
param *.manager.margin 25
param *.manager.moduleDisplayString "\"\""
param *.manager.moduleName "\"node\""
param *.manager.moduleType "\"Car\""
param *.manager.updateInterval 0.01s
param *.node[*].appl.attackStart 30s
param *.node[*].appl.attackerType 1
param *.node[*].appl.simulationDuration "60 s"
param *.node[*].appl_type "\"SimplePlatooningApp\""
param *.node[*].helper.nCars 8
param *.node[*].helper.nLanes 1
param *.node[*].helper.platoonSize 8
param *.node[*].helper_type "\"PositionHelper\""
param *.node[*].mobility.x 0
param *.node[*].mobility.y 0
param *.node[*].mobility.z 1.895
param *.node[*].prot.attackStart 30s
param *.node[*].prot.attackerType 1
param *.node[*].prot.attackingNode 3
param *.node[*].prot.beaconingInterval 0.1s
param *.node[*].prot.fakeAcc "(1 == 4)"
param *.node[*].prot.fakePos "(1 == 2)"
param *.node[*].prot.fakeSpeed "(1 == 3)"
param *.node[*].prot.maliciousAcc "-30 mpss"
param *.node[*].prot.maliciousSpeed 150kmph
param *.node[*].prot.packetSize 200
param *.node[*].prot.priority 2
param *.node[*].prot.shiftX "7 m"
param *.node[*].prot.useControllerAcceleration true
param *.node[*].protocol_type "\"SimplePlatooningBeaconing\""
param *.node[*].scenario.accHeadway 0.1s
param *.node[*].scenario.caccC1 0.5
param *.node[*].scenario.caccOmegaN "0.2 Hz"
param *.node[*].scenario.caccSpacing 5m
param *.node[*].scenario.caccXi 1
param *.node[*].scenario.controller "\"PLOEG\""
param *.node[*].scenario.engineTau "0.5 s"
param *.node[*].scenario.leaderHeadway 1.2s
param *.node[*].scenario.leaderOscillationFrequency "0.2 Hz"
param *.node[*].scenario.leaderSpeed 120kmph
param *.node[*].scenario.oscillationAmplitude "10 kmph"
param *.node[*].scenario.ploegH 0.5s
param *.node[*].scenario.ploegKd 0.7
param *.node[*].scenario.ploegKp 0.2
param *.node[*].scenario.startOscillating "5 s"
param *.node[*].scenario.useRealisticEngine false
param *.node[*].scenario_type "\"SinusoidalScenario\""
param *.node[*].unicast.packetLossRate 0
param *.obstacles.debug false
param *.playgroundSizeX 65000m
param *.playgroundSizeY 25000m
param *.playgroundSizeZ 50m
param *.world.use2D false
param *.world.useTorus false

vector 0  scenario.node[0].appl  distance  ETV
vector 1  scenario.node[0].appl  relativeSpeed  ETV
vector 2  scenario.node[0].appl  nodeId  ETV
vector 6  scenario.node[0].appl  acceleration  ETV
vector 7  scenario.node[0].appl  controllerAcceleration  ETV
vector 3  scenario.node[0].appl  speed  ETV
vector 4  scenario.node[0].appl  posx  ETV
vector 5  scenario.node[0].appl  posy  ETV
vector 22  scenario.node[1].appl  distance  ETV
vector 23  scenario.node[1].appl  relativeSpeed  ETV
vector 24  scenario.node[1].appl  nodeId  ETV
vector 28  scenario.node[1].appl  acceleration  ETV
vector 29  scenario.node[1].appl  controllerAcceleration  ETV
vector 25  scenario.node[1].appl  speed  ETV
vector 26  scenario.node[1].appl  posx  ETV
vector 27  scenario.node[1].appl  posy  ETV
vector 44  scenario.node[2].appl  distance  ETV
vector 45  scenario.node[2].appl  relativeSpeed  ETV
vector 46  scenario.node[2].appl  nodeId  ETV
vector 50  scenario.node[2].appl  acceleration  ETV
vector 51  scenario.node[2].appl  controllerAcceleration  ETV
vector 47  scenario.node[2].appl  speed  ETV
vector 48  scenario.node[2].appl  posx  ETV
vector 49  scenario.node[2].appl  posy  ETV
vector 66  scenario.node[3].appl  distance  ETV
vector 67  scenario.node[3].appl  relativeSpeed  ETV
vector 68  scenario.node[3].appl  nodeId  ETV
vector 72  scenario.node[3].appl  acceleration  ETV
vector 73  scenario.node[3].appl  controllerAcceleration  ETV
vector 69  scenario.node[3].appl  speed  ETV
vector 70  scenario.node[3].appl  posx  ETV
vector 71  scenario.node[3].appl  posy  ETV
vector 88  scenario.node[4].appl  distance  ETV
vector 89  scenario.node[4].appl  relativeSpeed  ETV
vector 90  scenario.node[4].appl  nodeId  ETV
vector 94  scenario.node[4].appl  acceleration  ETV
vector 95  scenario.node[4].appl  controllerAcceleration  ETV
vector 91  scenario.node[4].appl  speed  ETV
vector 92  scenario.node[4].appl  posx  ETV
vector 93  scenario.node[4].appl  posy  ETV
vector 110  scenario.node[5].appl  distance  ETV
vector 111  scenario.node[5].appl  relativeSpeed  ETV
vector 112  scenario.node[5].appl  nodeId  ETV
vector 116  scenario.node[5].appl  acceleration  ETV
vector 117  scenario.node[5].appl  controllerAcceleration  ETV
vector 113  scenario.node[5].appl  speed  ETV
vector 114  scenario.node[5].appl  posx  ETV
vector 115  scenario.node[5].appl  posy  ETV
vector 132  scenario.node[6].appl  distance  ETV
vector 133  scenario.node[6].appl  relativeSpeed  ETV
vector 134  scenario.node[6].appl  nodeId  ETV
vector 138  scenario.node[6].appl  acceleration  ETV
vector 139  scenario.node[6].appl  controllerAcceleration  ETV
vector 135  scenario.node[6].appl  speed  ETV
vector 136  scenario.node[6].appl  posx  ETV
vector 137  scenario.node[6].appl  posy  ETV
vector 154  scenario.node[7].appl  distance  ETV
vector 155  scenario.node[7].appl  relativeSpeed  ETV
vector 156  scenario.node[7].appl  nodeId  ETV
vector 160  scenario.node[7].appl  acceleration  ETV
vector 161  scenario.node[7].appl  controllerAcceleration  ETV
vector 157  scenario.node[7].appl  speed  ETV
vector 158  scenario.node[7].appl  posx  ETV
vector 159  scenario.node[7].appl  posy  ETV
vector 102  scenario.node[4].prot  frontDelay  ETV
vector 100  scenario.node[4].prot  frontDelayId  ETV
vector 35  scenario.node[1].prot  leaderDelay  ETV
vector 33  scenario.node[1].prot  leaderDelayId  ETV
vector 36  scenario.node[1].prot  frontDelay  ETV
vector 34  scenario.node[1].prot  frontDelayId  ETV
vector 57  scenario.node[2].prot  leaderDelay  ETV
vector 55  scenario.node[2].prot  leaderDelayId  ETV
vector 79  scenario.node[3].prot  leaderDelay  ETV
vector 77  scenario.node[3].prot  leaderDelayId  ETV
vector 101  scenario.node[4].prot  leaderDelay  ETV
vector 99  scenario.node[4].prot  leaderDelayId  ETV
vector 123  scenario.node[5].prot  leaderDelay  ETV
vector 121  scenario.node[5].prot  leaderDelayId  ETV
vector 145  scenario.node[6].prot  leaderDelay  ETV
vector 143  scenario.node[6].prot  leaderDelayId  ETV
vector 167  scenario.node[7].prot  leaderDelay  ETV
vector 165  scenario.node[7].prot  leaderDelayId  ETV
vector 80  scenario.node[3].prot  frontDelay  ETV
vector 78  scenario.node[3].prot  frontDelayId  ETV
vector 146  scenario.node[6].prot  frontDelay  ETV
vector 144  scenario.node[6].prot  frontDelayId  ETV
vector 58  scenario.node[2].prot  frontDelay  ETV
vector 56  scenario.node[2].prot  frontDelayId  ETV
vector 124  scenario.node[5].prot  frontDelay  ETV
vector 122  scenario.node[5].prot  frontDelayId  ETV
vector 168  scenario.node[7].prot  frontDelay  ETV
vector 166  scenario.node[7].prot  frontDelayId  ETV
vector 8  scenario.node[0].prot  nodeId  ETV
vector 9  scenario.node[0].prot  busyTime  ETV
vector 10  scenario.node[0].prot  collisions  ETV
vector 30  scenario.node[1].prot  nodeId  ETV
vector 31  scenario.node[1].prot  busyTime  ETV
vector 32  scenario.node[1].prot  collisions  ETV
vector 52  scenario.node[2].prot  nodeId  ETV
vector 53  scenario.node[2].prot  busyTime  ETV
vector 54  scenario.node[2].prot  collisions  ETV
vector 74  scenario.node[3].prot  nodeId  ETV
vector 75  scenario.node[3].prot  busyTime  ETV
vector 76  scenario.node[3].prot  collisions  ETV
vector 96  scenario.node[4].prot  nodeId  ETV
vector 97  scenario.node[4].prot  busyTime  ETV
vector 98  scenario.node[4].prot  collisions  ETV
vector 118  scenario.node[5].prot  nodeId  ETV
vector 119  scenario.node[5].prot  busyTime  ETV
vector 120  scenario.node[5].prot  collisions  ETV
vector 140  scenario.node[6].prot  nodeId  ETV
vector 141  scenario.node[6].prot  busyTime  ETV
vector 142  scenario.node[6].prot  collisions  ETV
vector 162  scenario.node[7].prot  nodeId  ETV
vector 163  scenario.node[7].prot  busyTime  ETV
vector 164  scenario.node[7].prot  collisions  ETV
7	11243 13859 232 328174 1.11 59.91 589 -1.5 1.5 -14.445953361693 993.24092335941
6	25102 18579 232 328174 1.11 59.91 589 -1.4722746795918 1.4513434175775 -12.507247963452 675.29835166926
5	43681 12081 232 328174 1.11 59.91 589 36.55 36.55 21527.95 786846.5725
4	55762 17901 232 328174 1.11 59.91 589 229.27519722025 2193.5913275401 714353.96008337 1056067466.8006
3	73663 17913 232 328174 1.11 59.91 589 32.043521415285 35.298048086563 19676.061011579 657739.0394163
1	91576 9725 232 328174 1.11 59.91 589 0 0 0 0
0	101301 10314 232 328174 1.11 59.91 589 -1 -1 -589 589
2	111615 9725 232 328174 1.11 59.91 589 0 0 0 0
10	121340 859 5234 328728 2 60 59 0 0 0 0
9	122199 1155 5234 328728 2 60 59 0.023625 0.02625 1.546125 0.040523765625
8	123354 800 5234 328728 2 60 59 0 0 0 0
29	124154 19163 233 328175 1.11 59.91 589 -1.5670511866253 1.5065479252216 4.5182786585674 509.66661333946
28	143317 19264 233 328175 1.11 59.91 589 -1.4881998512983 1.361204573363 6.23367792344 367.66137893491
27	162581 12670 233 328175 1.11 59.91 589 36.55 36.55 21527.95 786846.5725
26	175251 18500 233 328175 1.11 59.91 589 203.60852546692 2175.2772479899 701933.96008439 1027688147.4949
25	193751 18504 233 328175 1.11 59.91 589 32.185183317179 35.356735278118 19750.241218641 662592.04939922
23	212255 19287 233 328175 1.11 59.91 589 -3.0660027290628 1.8887942462131 -74.055134581994 607.67760999018
22	231542 18495 233 328175 1.11 59.91 589 12.707092934228 21.666671753153 10065.483603123 175880.64920412
24	250037 10314 233 328175 1.11 59.91 589 1 1 589 589
36	260351 23672 964 328350 1.241824568443 59.941816410773 588 0.0999996293 0.100012758507 58.799991725855 5.8799983474767
35	284023 23672 964 328350 1.241824568443 59.941816410773 588 0.0999996293 0.100012758507 58.799991725855 5.8799983474767
34	307695 16102 964 328350 1.241824568443 59.941816410773 588 1 1 588 588
33	323797 16102 964 328350 1.241824568443 59.941816410773 588 1 1 588 588
32	339899 859 5235 328729 2 60 59 0 0 0 0
31	340758 1214 5235 328729 2 60 59 0.023625 0.02625 1.546125 0.040523765625
30	341972 859 5235 328729 2 60 59 1 1 59 59
51	342831 19247 234 328176 1.11 59.91 589 -1.579749231261 1.4155145808015 6.6858865195433 404.43317754897
50	362078 19297 234 328176 1.11 59.91 589 -1.4513304394896 1.257807221522 5.9034086648367 296.44160709236
49	381375 12670 234 328176 1.11 59.91 589 36.55 36.55 21527.95 786846.5725
48	394045 18488 234 328176 1.11 59.91 589 177.94186897278 2152.2919023309 688402.72503634 996018230.04773
47	412533 18501 234 328176 1.11 59.91 589 32.293861830892 35.416796383666 19777.039026436 664382.76323546
45	431034 19483 234 328176 1.11 59.91 589 -0.76188642686337 0.6362652483399 -26.860144574347 88.260466286612
44	450517 18500 234 328176 1.11 59.91 589 18.117707833752 21.667235678945 11175.771004212 212410.05705763
46	469017 10314 234 328176 1.11 59.91 589 2 2 1178 2356
58	479331 23688 1176 328562 1.281934338976 59.981939095843 588 0.099999628664 0.100012784863 58.800004640392 5.8800009305451
57	503019 23688 970 328356 1.241824654058 59.941816487448 588 0.09999962927 0.100012758558 58.799991716915 5.8799983456887
56	526707 16114 1176 328562 1.281934338976 59.981939095843 588 2 2 1176 2352
55	542821 16114 970 328356 1.241824654058 59.941816487448 588 2 2 1176 2352
54	558935 859 5236 328730 2 60 59 0 0 0 0
53	559794 1214 5236 328730 2 60 59 0.023625 0.02625 1.546125 0.040523765625
52	561008 859 5236 328730 2 60 59 2 2 118 236
73	561867 19249 235 328177 1.11 59.91 589 -1.5317397821823 1.3047059280482 6.0677710409318 330.63302143824
72	581116 19340 235 328177 1.11 59.91 589 -1.3864877895294 1.202361822186 3.6069712005641 244.96843955073
71	600456 12670 235 328177 1.11 59.91 589 36.55 36.55 21527.95 786846.5725
70	613126 18505 235 328177 1.11 59.91 589 152.27519721985 2129.4164907825 674858.30892628 964965115.61632
69	631631 18508 235 328177 1.11 59.91 589 32.385608180997 35.465281801689 19804.868774183 666275.84519922
67	650139 19519 235 328177 1.11 59.91 589 -0.71358619508297 0.60707224640571 -27.8887818334 72.029752977456
66	669658 18495 235 328177 1.11 59.91 589 18.167408986081 21.66667175293 11188.972705013 212932.17162277
68	688153 10314 235 328177 1.11 59.91 589 3 3 1767 5301
80	698467 23673 1040 328420 1.262751739673 59.962756563791 588 0.09999962918 0.100012868249 58.800004707643 5.8800009439987
79	722140 23688 976 328362 1.241824739672 59.941816563775 588 0.099999629179 0.100012758563 58.799991707628 5.8799983438313
78	745828 16100 1040 328420 1.262751739673 59.962756563791 588 3 3 1764 5292
77	761928 16106 976 328362 1.241824739672 59.941816563775 588 3 3 1764 5292
76	778034 859 5237 328731 2 60 59 0 0 0 0
75	778893 1214 5237 328731 2 60 59 0.023625 0.02625 1.546125 0.040523765625
74	780107 859 5237 328731 2 60 59 3 3 177 531
95	780966 19292 236 328178 1.11 59.91 589 -1.4518809316391 1.2481112447629 3.4922405887541 276.38569316574
94	800258 19395 236 328178 1.11 59.91 589 -1.3112631248511 1.1467550345024 0.56806475278748 206.96374799067
93	819653 12670 236 328178 1.11 59.91 589 36.55 36.55 21527.95 786846.5725
92	832323 18494 236 328178 1.11 59.91 589 126.60853309631 2106.6990693263 661299.99709717 934527070.51826
91	850817 18488 236 328178 1.11 59.91 589 32.467045502288 35.763594149896 19834.254184079 668301.01101583
89	869305 19541 236 328178 1.11 59.91 589 -0.66259160312418 0.5793956279533 -29.421479608518 59.023533662264
88	888846 18505 236 328178 1.11 59.91 589 18.211281904352 21.666664123535 11202.899537303 213483.63050052
90	907351 10314 236 328178 1.11 59.91 589 4 4 2356 9424
102	917665 24291 904 328284 1.240527311599 59.940532211775 588 0.099999628059 0.100012882175 58.800004783701 5.880000959211
101	941956 24300 982 328368 1.241824825287 59.941816639583 588 0.099999629074 0.100012758494 58.799991697821 5.8799983418699
100	966256 16716 904 328284 1.240527311599 59.940532211775 588 4 4 2352 9408
99	982972 16126 982 328368 1.241824825287 59.941816639583 588 4 4 2352 9408
98	999098 859 5238 328732 2 60 59 0 0 0 0
97	999957 1214 5238 328732 2 60 59 0.023625 0.02625 1.546125 0.040523765625
96	1001171 859 5238 328732 2 60 59 4 4 236 944
117	1002030 19956 237 328179 1.11 59.91 589 -1.36084666225 1.229488776726 0.26973477339558 235.76470322016
116	1021986 19998 237 328179 1.11 59.91 589 -1.2331287573858 1.135140474527 -1.9899918032891 179.79300910636
115	1041984 13259 237 328179 1.11 59.91 589 36.55 36.55 21527.95 786846.5725
114	1055243 19086 237 328179 1.11 59.91 589 100.94186897278 2084.1225560532 647725.23208778 904701475.25139
113	1074329 19086 237 328179 1.11 59.91 589 32.540487719264 36.275806485903 19865.067203395 670445.44806254
111	1093415 20146 237 328179 1.11 59.91 589 -0.6143109320962 0.55091664688824 -30.818699963772 48.881197727644
110	1113561 19094 237 328179 1.11 59.91 589 18.250448877561 21.673390018067 11219.381269776 214140.51619605
112	1132655 10903 237 328179 1.11 59.91 589 5 5 2945 14725
124	1143558 24288 1242 328622 1.28739159582 59.987396323415 588 0.099999628392 0.10001288305 58.80000461112 5.880000924695
123	1167846 24281 988 328374 1.241824910902 59.941816714916 588 0.099999628997 0.100012758359 58.799991687539 5.8799983398135
122	1192127 16718 1242 328622 1.28739159582 59.987396323415 588 5 5 2940 14700
121	1208845 16692 988 328374 1.241824910902 59.941816714916 588 5 5 2940 14700
120	1225537 918 5239 328733 2 60 59 0 0 0 0
119	1226455 1273 5239 328733 2 60 59 0.023625 0.02625 1.546125 0.040523765625
118	1227728 918 5239 328733 2 60 59 5 5 295 1475
139	1228646 19993 238 328180 1.11 59.91 589 -1.2715566332935 1.3017871034847 -2.3155695269609 206.13732660662
138	1248639 19999 238 328180 1.11 59.91 589 -1.1601563607734 1.2187119659124 -3.2869842336602 161.41629094021
137	1268638 13259 238 328180 1.11 59.91 589 36.55 36.55 21527.95 786846.5725
136	1281897 19077 238 328180 1.11 59.91 589 75.275201034546 2061.6234889434 634135.2584211 875488796.52914
135	1300974 19094 238 328180 1.11 59.91 589 32.60717692822 36.739081876885 19896.699767414 672663.67680346
133	1320068 20174 238 328180 1.11 59.91 589 -0.57330700230548 0.5231317304797 -31.612664100436 40.878688152077
132	1340242 19085 238 328180 1.11 59.91 589 18.285929918937 21.666667938232 11234.606317964 214743.48823199
134	1359327 10903 238 328180 1.11 59.91 589 6 6 3534 21204
146	1370230 24286 1106 328486 1.266713996517 59.966705790038 588 0.099999628967 0.100012756992 58.799991677046 5.8799983377149
145	1394516 24286 994 328380 1.241824996517 59.941816789977 588 0.099999628967 0.100012758187 58.799991676985 5.8799983377027
144	1418802 16711 1106 328486 1.266713996517 59.966705790038 588 6 6 3528 21168
143	1435513 16703 994 328380 1.241824996517 59.941816789977 588 6 6 3528 21168
142	1452216 918 5240 328734 2 60 59 0 0 0 0
141	1453134 1273 5240 328734 2 60 59 0.023625 0.02625 1.546125 0.040523765625
140	1454407 918 5240 328734 2 60 59 6 6 354 2124
161	1455325 19990 239 328181 1.11 59.91 589 -1.1879285958061 1.3501441511268 -3.5319783275168 185.62010450088
160	1475315 20015 239 328181 1.11 59.91 589 -1.0902231281975 1.2760374403186 -3.148885999277 149.07435414147
159	1495330 13259 239 328181 1.11 59.91 589 36.55 36.55 21527.95 786846.5725
158	1508589 19086 239 328181 1.11 59.91 589 49.608533096313 2039.1266114126 620528.7792032 846889723.08619
157	1527675 19082 239 328181 1.11 59.91 589 32.668871580744 37.158303154271 19928.404533096 674903.21298936
155	1546757 20203 239 328181 1.11 59.91 589 -0.5571561738435 0.49625629577806 -31.671895839654 34.84314575932
154	1566960 19073 239 328181 1.11 59.91 589 18.318482829958 21.674333778138 11251.113313214 215401.41467028
156	1586033 10903 239 328181 1.11 59.91 589 7 7 4123 28861
168	1596936 24288 1308 328688 1.28946876705 59.989473473533 588 0.099999628373 0.100012790893 58.800004590008 5.8800009204686
167	1621224 24283 1000 328386 1.241825082131 59.941816865017 588 0.099999628983 0.100012758 58.799991666411 5.8799983355879
166	1645507 16695 1308 328688 1.28946876705 59.989473473533 588 7 7 4116 28812
165	1662202 16705 1000 328386 1.241825082131 59.941816865017 588 7 7 4116 28812
164	1678907 918 5241 328735 2 60 59 0 0 0 0
163	1679825 1273 5241 328735 2 60 59 0.023625 0.02625 1.546125 0.040523765625
162	1681098 918 5241 328735 2 60 59 7 7 413 2891
