file 1028724 1501600987                                         
version 2
run SinusoidalJammingDetail-369-20170801-17:22:48-93186
attr CACCSpacing 9
attr attackAcc -30
attr attackPos 7
attr attackSpeed 150
attr attackStart 30.5
attr attacker 1
attr beaconInterval 0.1
attr configname SinusoidalJammingDetail
attr controller 1
attr datetime 20170801-17:22:48
attr experiment SinusoidalJammingDetail
attr fakeAcc "(1 == 4)"
attr fakePos "(1 == 2)"
attr fakeSpeed "(1 == 3)"
attr inifile omnetpp_369.ini
attr iterationvars "$leaderSpeed=100, $controller=1, $CACCSpacing=9, $sController=\"CACC\", $attacker=1, $attackStart=30.5, $attackSpeed=150, $attackPos=7, $attackAcc=-30, $0=9, $1=0, $nCars=8, $platoonSize=8, $nLanes=1, $beaconInterval=0.1, $priority=2, $packetSize=200, $ploegH=0.5, $leaderHeadway=1.2, $fakeSpeed=(1 == 3), $fakeAcc=(1 == 4), $fakePos=(1 == 2)"
attr iterationvarsf leaderSpeed=100,controller=1,CACCSpacing=9,sController=CACC,attacker=1,attackStart=30.5,attackSpeed=150,attackPos=7,attackAcc=-30,9,0,nCars=8,platoonSize=8,nLanes=1,beaconInterval=0.1,priority=2,packetSize=200,ploegH=0.5,leaderHeadway=1.2,fakeSpeed=(1_==_3),fakeAcc=(1_==_4),fakePos=(1_==_2)-
attr leaderHeadway 1.2
attr leaderSpeed 100
attr measurement "$leaderSpeed=100, $controller=1, $CACCSpacing=9, $sController=\"CACC\", $attacker=1, $attackStart=30.5, $attackSpeed=150, $attackPos=7, $attackAcc=-30, $0=9, $1=0, $nCars=8, $platoonSize=8, $nLanes=1, $beaconInterval=0.1, $priority=2, $packetSize=200, $ploegH=0.5, $leaderHeadway=1.2, $fakeSpeed=(1 == 3), $fakeAcc=(1 == 4), $fakePos=(1 == 2)"
attr nCars 8
attr nLanes 1
attr network scenario
attr packetSize 200
attr platoonSize 8
attr ploegH 0.5
attr priority 2
attr processid 93186
attr repetition 4
attr replication #4
attr resultdir results
attr runnumber 369
attr sController "\"CACC\""
attr seedset 4
param **.coreDebug false
param **.debug false
param **.headway 0.1s
param **.numberOfCars 8
param **.numberOfCarsPerPlatoon 8
param **.numberOfLanes 1
param **.numericController 1
param **.traffic.nCars 8
param **.traffic.nLanes 1
param **.traffic.platoonInsertDistance 9m
param **.traffic.platoonInsertHeadway 0s
param **.traffic.platoonInsertSpeed 100kmph
param **.traffic.platoonInsertTime "1 s"
param **.traffic.platoonLeaderHeadway 1.2s
param **.traffic.platoonSize 8
param **.traffic.platooningVType "\"vtypeauto\""
param **.traffic_type "\"PlatoonsTrafficManager\""
param *.**.nic.mac1609_4.bitrate 6Mbps
param *.**.nic.mac1609_4.txPower 100mW
param *.**.nic.mac1609_4.useServiceChannel false
param *.**.nic.phy80211p.analogueModels "xmldoc(\"config.xml\")"
param *.**.nic.phy80211p.decider "xmldoc(\"config.xml\")"
param *.**.nic.phy80211p.maxTXPower 100mW
param *.**.nic.phy80211p.sensitivity -94dBm
param *.**.nic.phy80211p.thermalNoise -95dBm
param *.**.nic.phy80211p.usePropagationDelay true
param *.**.nic.phy80211p.useThermalNoise true
param *.annotations.draw false
param *.connectionManager.alpha 2.0
param *.connectionManager.carrierFrequency "5.890e9 Hz"
param *.connectionManager.pMax 100mW
param *.connectionManager.sat -94dBm
param *.connectionManager.sendDirect true
param *.manager.autoShutdown true
param *.manager.commandLine "\"sumo --remote-port $port --seed $seed --configuration-file $configFile\""
param *.manager.configFile "\"./sumocfg/freeway.sumo.cfg\""
param *.manager.host "\"localhost\""
param *.manager.margin 25
param *.manager.moduleDisplayString "\"\""
param *.manager.moduleName "\"node\""
param *.manager.moduleType "\"Car\""
param *.manager.updateInterval 0.01s
param *.node[*].appl.attackStart 30.5s
param *.node[*].appl.attackerType 1
param *.node[*].appl.simulationDuration "60 s"
param *.node[*].appl_type "\"SimplePlatooningApp\""
param *.node[*].helper.nCars 8
param *.node[*].helper.nLanes 1
param *.node[*].helper.platoonSize 8
param *.node[*].helper_type "\"PositionHelper\""
param *.node[*].mobility.x 0
param *.node[*].mobility.y 0
param *.node[*].mobility.z 1.895
param *.node[*].prot.attackStart 30.5s
param *.node[*].prot.attackerType 1
param *.node[*].prot.attackingNode 3
param *.node[*].prot.beaconingInterval 0.1s
param *.node[*].prot.fakeAcc "(1 == 4)"
param *.node[*].prot.fakePos "(1 == 2)"
param *.node[*].prot.fakeSpeed "(1 == 3)"
param *.node[*].prot.maliciousAcc "-30 mpss"
param *.node[*].prot.maliciousSpeed 150kmph
param *.node[*].prot.packetSize 200
param *.node[*].prot.priority 2
param *.node[*].prot.shiftX "7 m"
param *.node[*].prot.useControllerAcceleration true
param *.node[*].protocol_type "\"SimplePlatooningBeaconing\""
param *.node[*].scenario.accHeadway 0.1s
param *.node[*].scenario.caccC1 0.5
param *.node[*].scenario.caccOmegaN "0.2 Hz"
param *.node[*].scenario.caccSpacing 9m
param *.node[*].scenario.caccXi 1
param *.node[*].scenario.controller "\"CACC\""
param *.node[*].scenario.engineTau "0.5 s"
param *.node[*].scenario.leaderHeadway 1.2s
param *.node[*].scenario.leaderOscillationFrequency "0.2 Hz"
param *.node[*].scenario.leaderSpeed 100kmph
param *.node[*].scenario.oscillationAmplitude "10 kmph"
param *.node[*].scenario.ploegH 0.5s
param *.node[*].scenario.ploegKd 0.7
param *.node[*].scenario.ploegKp 0.2
param *.node[*].scenario.startOscillating "5 s"
param *.node[*].scenario.useRealisticEngine false
param *.node[*].scenario_type "\"SinusoidalScenario\""
param *.node[*].unicast.packetLossRate 0
param *.obstacles.debug false
param *.playgroundSizeX 65000m
param *.playgroundSizeY 25000m
param *.playgroundSizeZ 50m
param *.world.use2D false
param *.world.useTorus false

vector 0  scenario.node[0].appl  distance  ETV
vector 1  scenario.node[0].appl  relativeSpeed  ETV
vector 2  scenario.node[0].appl  nodeId  ETV
vector 6  scenario.node[0].appl  acceleration  ETV
vector 7  scenario.node[0].appl  controllerAcceleration  ETV
vector 3  scenario.node[0].appl  speed  ETV
vector 4  scenario.node[0].appl  posx  ETV
vector 5  scenario.node[0].appl  posy  ETV
vector 22  scenario.node[1].appl  distance  ETV
vector 23  scenario.node[1].appl  relativeSpeed  ETV
vector 24  scenario.node[1].appl  nodeId  ETV
vector 28  scenario.node[1].appl  acceleration  ETV
vector 29  scenario.node[1].appl  controllerAcceleration  ETV
vector 25  scenario.node[1].appl  speed  ETV
vector 26  scenario.node[1].appl  posx  ETV
vector 27  scenario.node[1].appl  posy  ETV
vector 44  scenario.node[2].appl  distance  ETV
vector 45  scenario.node[2].appl  relativeSpeed  ETV
vector 46  scenario.node[2].appl  nodeId  ETV
vector 50  scenario.node[2].appl  acceleration  ETV
vector 51  scenario.node[2].appl  controllerAcceleration  ETV
vector 47  scenario.node[2].appl  speed  ETV
vector 48  scenario.node[2].appl  posx  ETV
vector 49  scenario.node[2].appl  posy  ETV
vector 66  scenario.node[3].appl  distance  ETV
vector 67  scenario.node[3].appl  relativeSpeed  ETV
vector 68  scenario.node[3].appl  nodeId  ETV
vector 72  scenario.node[3].appl  acceleration  ETV
vector 73  scenario.node[3].appl  controllerAcceleration  ETV
vector 69  scenario.node[3].appl  speed  ETV
vector 70  scenario.node[3].appl  posx  ETV
vector 71  scenario.node[3].appl  posy  ETV
vector 88  scenario.node[4].appl  distance  ETV
vector 89  scenario.node[4].appl  relativeSpeed  ETV
vector 90  scenario.node[4].appl  nodeId  ETV
vector 94  scenario.node[4].appl  acceleration  ETV
vector 95  scenario.node[4].appl  controllerAcceleration  ETV
vector 91  scenario.node[4].appl  speed  ETV
vector 92  scenario.node[4].appl  posx  ETV
vector 93  scenario.node[4].appl  posy  ETV
vector 110  scenario.node[5].appl  distance  ETV
vector 111  scenario.node[5].appl  relativeSpeed  ETV
vector 112  scenario.node[5].appl  nodeId  ETV
vector 116  scenario.node[5].appl  acceleration  ETV
vector 117  scenario.node[5].appl  controllerAcceleration  ETV
vector 113  scenario.node[5].appl  speed  ETV
vector 114  scenario.node[5].appl  posx  ETV
vector 115  scenario.node[5].appl  posy  ETV
vector 132  scenario.node[6].appl  distance  ETV
vector 133  scenario.node[6].appl  relativeSpeed  ETV
vector 134  scenario.node[6].appl  nodeId  ETV
vector 138  scenario.node[6].appl  acceleration  ETV
vector 139  scenario.node[6].appl  controllerAcceleration  ETV
vector 135  scenario.node[6].appl  speed  ETV
vector 136  scenario.node[6].appl  posx  ETV
vector 137  scenario.node[6].appl  posy  ETV
vector 154  scenario.node[7].appl  distance  ETV
vector 155  scenario.node[7].appl  relativeSpeed  ETV
vector 156  scenario.node[7].appl  nodeId  ETV
vector 160  scenario.node[7].appl  acceleration  ETV
vector 161  scenario.node[7].appl  controllerAcceleration  ETV
vector 157  scenario.node[7].appl  speed  ETV
vector 158  scenario.node[7].appl  posx  ETV
vector 159  scenario.node[7].appl  posy  ETV
vector 102  scenario.node[4].prot  frontDelay  ETV
vector 100  scenario.node[4].prot  frontDelayId  ETV
vector 35  scenario.node[1].prot  leaderDelay  ETV
vector 33  scenario.node[1].prot  leaderDelayId  ETV
vector 36  scenario.node[1].prot  frontDelay  ETV
vector 34  scenario.node[1].prot  frontDelayId  ETV
vector 57  scenario.node[2].prot  leaderDelay  ETV
vector 55  scenario.node[2].prot  leaderDelayId  ETV
vector 79  scenario.node[3].prot  leaderDelay  ETV
vector 77  scenario.node[3].prot  leaderDelayId  ETV
vector 101  scenario.node[4].prot  leaderDelay  ETV
vector 99  scenario.node[4].prot  leaderDelayId  ETV
vector 123  scenario.node[5].prot  leaderDelay  ETV
vector 121  scenario.node[5].prot  leaderDelayId  ETV
vector 145  scenario.node[6].prot  leaderDelay  ETV
vector 143  scenario.node[6].prot  leaderDelayId  ETV
vector 167  scenario.node[7].prot  leaderDelay  ETV
vector 165  scenario.node[7].prot  leaderDelayId  ETV
vector 80  scenario.node[3].prot  frontDelay  ETV
vector 78  scenario.node[3].prot  frontDelayId  ETV
vector 146  scenario.node[6].prot  frontDelay  ETV
vector 144  scenario.node[6].prot  frontDelayId  ETV
vector 58  scenario.node[2].prot  frontDelay  ETV
vector 56  scenario.node[2].prot  frontDelayId  ETV
vector 124  scenario.node[5].prot  frontDelay  ETV
vector 122  scenario.node[5].prot  frontDelayId  ETV
vector 168  scenario.node[7].prot  frontDelay  ETV
vector 166  scenario.node[7].prot  frontDelayId  ETV
vector 8  scenario.node[0].prot  nodeId  ETV
vector 9  scenario.node[0].prot  busyTime  ETV
vector 10  scenario.node[0].prot  collisions  ETV
vector 30  scenario.node[1].prot  nodeId  ETV
vector 31  scenario.node[1].prot  busyTime  ETV
vector 32  scenario.node[1].prot  collisions  ETV
vector 52  scenario.node[2].prot  nodeId  ETV
vector 53  scenario.node[2].prot  busyTime  ETV
vector 54  scenario.node[2].prot  collisions  ETV
vector 74  scenario.node[3].prot  nodeId  ETV
vector 75  scenario.node[3].prot  busyTime  ETV
vector 76  scenario.node[3].prot  collisions  ETV
vector 96  scenario.node[4].prot  nodeId  ETV
vector 97  scenario.node[4].prot  busyTime  ETV
vector 98  scenario.node[4].prot  collisions  ETV
vector 118  scenario.node[5].prot  nodeId  ETV
vector 119  scenario.node[5].prot  busyTime  ETV
vector 120  scenario.node[5].prot  collisions  ETV
vector 140  scenario.node[6].prot  nodeId  ETV
vector 141  scenario.node[6].prot  busyTime  ETV
vector 142  scenario.node[6].prot  collisions  ETV
vector 162  scenario.node[7].prot  nodeId  ETV
vector 163  scenario.node[7].prot  busyTime  ETV
vector 164  scenario.node[7].prot  collisions  ETV
7	11244 8589 232 201559 1.11 37.21 362 -1.5 1.5 16.332666611439 582.342305115
6	19833 11371 232 201559 1.11 37.21 362 -1.4722746794938 1.4513430531448 10.978971079151 396.02974105225
5	31204 7314 232 201559 1.11 37.21 362 36.55 36.55 13231.1 483596.705
4	38518 10903 232 201559 1.11 37.21 362 140.05297775242 1146.2783334297 233370.85846951 181160146.47226
3	49421 10896 232 201559 1.11 37.21 362 26.487975689908 29.742492528104 10090.407917912 281527.48922005
1	60317 5866 232 201559 1.11 37.21 362 0 0 0 0
0	66183 6228 232 201559 1.11 37.21 362 -1 -1 -362 362
2	72411 5866 232 201559 1.11 37.21 362 0 0 0 0
10	78277 514 5234 200434 2 37 36 0 0 0 0
9	78791 695 5234 200434 2 37 36 0.023625 0.02625 0.942375 0.024675328125
8	79486 478 5234 200434 2 37 36 0 0 0 0
51	79964 11684 234 201561 1.11 37.21 362 -1.5169291874388 1.5151528893525 29.05306237075 495.33689535348
50	91648 11741 234 201561 1.11 37.21 362 -1.474469214601 1.4486483627909 29.047589425634 340.00486841533
49	103389 7676 234 201561 1.11 37.21 362 36.55 36.55 13231.1 483596.705
48	111065 11246 234 201561 1.11 37.21 362 114.05297775269 1131.5367178669 224171.29537546 169734869.84239
47	122311 11256 234 201561 1.11 37.21 362 26.489807071192 30.686853136071 10203.631892135 288062.02772436
45	133567 12365 234 201561 1.11 37.21 362 -0.83250223496182 0.016164858543871 -23.36157010886 13.229448476603
44	145932 11238 234 201561 1.11 37.21 362 6.7304454855678 9.043060138527 3215.6787956173 28618.041127536
46	157170 6228 234 201561 1.11 37.21 362 2 2 724 1448
58	163398 14386 1176 201390 1.281932691169 37.181931899203 360 0.099998826507 0.100011955872 35.999998162027 3.5999996369119
57	177784 14408 970 201184 1.241823344263 37.141822585006 360 0.099998827833 0.100011955802 35.999998194736 3.5999996434528
56	192192 9748 1176 201390 1.281932691169 37.181931899203 360 2 2 720 1440
55	201940 9762 970 201184 1.241823344263 37.141822585006 360 2 2 720 1440
54	211702 514 5236 200436 2 37 36 0 0 0 0
53	212216 731 5236 200436 2 37 36 0.023625 0.02625 0.942375 0.024675328125
52	212947 514 5236 200436 2 37 36 2 2 72 144
73	213461 11688 235 201562 1.11 37.21 362 -1.4985212089264 1.4980940713731 35.300941183251 489.31054162998
72	225149 11738 235 201562 1.11 37.21 362 -1.4637937971386 1.4376572545228 34.814019270274 340.5974927431
71	236887 7676 235 201562 1.11 37.21 362 36.55 36.55 13231.1 483596.705
70	244563 11263 235 201562 1.11 37.21 362 101.05297775269 1119.9291284121 219489.75432501 164021168.26973
69	255826 11257 235 201562 1.11 37.21 362 26.49929006903 31.254311416922 10217.756820725 288922.42792113
67	267083 12453 235 201562 1.11 37.21 362 -0.5707271380472 0.013757099034954 -14.415404484422 5.3272604354167
66	279536 11227 235 201562 1.11 37.21 362 7.619009164212 9.0387417848268 3233.8235490196 28906.611024811
68	290763 6228 235 201562 1.11 37.21 362 3 3 1086 3258
80	296991 14390 1040 201254 1.262750387626 37.16274962382 360 0.099998827646 0.10001195605 35.999998190187 3.5999996425448
79	311381 14406 976 201190 1.241823387626 37.141822623857 360 0.099998827646 0.10001195581 35.999998190224 3.5999996425504
78	325787 9747 1040 201254 1.262750387626 37.16274962382 360 3 3 1080 3240
77	335534 9760 976 201190 1.241823387626 37.141822623857 360 3 3 1080 3240
76	345294 514 5237 200437 2 37 36 0 0 0 0
75	345808 731 5237 200437 2 37 36 0.023625 0.02625 0.942375 0.024675328125
74	346539 514 5237 200437 2 37 36 3 3 108 324
95	347053 11656 236 201563 1.11 37.21 362 -1.4920639078548 1.492297991817 39.436823087923 485.77932311775
94	358709 11729 236 201563 1.11 37.21 362 -1.4606979511044 1.4336101310143 38.648070107457 343.18621629234
93	370438 7676 236 201563 1.11 37.21 362 36.55 36.55 13231.1 483596.705
92	378114 11258 236 201563 1.11 37.21 362 88.052977752686 1107.7132621981 214795.43781222 158401684.10519
91	389372 11264 236 201563 1.11 37.21 362 26.503753956142 31.633236508451 10225.73173763 289416.50041294
89	400636 12273 236 201563 1.11 37.21 362 -0.37978545630642 0.025327724852733 -8.3230570978099 2.1238554363592
88	412909 11253 236 201563 1.11 37.21 362 8.2234447158855 9.0545016922784 3246.4760111253 29120.0991041
90	424162 6228 236 201563 1.11 37.21 362 4 4 1448 5792
102	430390 14768 904 201118 1.240526170809 37.140538487767 360 0.099998832855 0.100011956053 36.000011270951 3.6000022588364
101	445158 14741 982 201196 1.241823430989 37.141822664693 360 0.099998827523 0.100011955819 35.999998187697 3.599999642045
100	459899 10118 904 201118 1.240526170809 37.140538487767 360 4 4 1440 5760
99	470017 9748 982 201196 1.241823430989 37.141822664693 360 4 4 1440 5760
98	479765 514 5238 200438 2 37 36 0 0 0 0
97	480279 731 5238 200438 2 37 36 0.023625 0.02625 0.942375 0.024675328125
96	481010 514 5238 200438 2 37 36 4 4 144 576
117	481524 12030 237 201564 1.11 37.21 362 -1.4980277570429 1.4988827604699 42.687302413078 495.48003331996
116	493554 12080 237 201564 1.11 37.21 362 -1.453940271638 1.4285447656441 41.053674270054 343.74065995198
115	505634 8038 237 201564 1.11 37.21 362 36.55 36.55 13231.1 483596.705
114	513672 11619 237 201564 1.11 37.21 362 75.052977752686 1095.2461623678 210098.78056184 152898357.01316
113	525291 11623 237 201564 1.11 37.21 362 26.506799901103 31.871364763509 10231.144353396 289750.38526704
111	536914 12652 237 201564 1.11 37.21 362 -0.23995576942969 0.035220619226141 -5.7990964675986 0.98388512861214
110	549566 11590 237 201564 1.11 37.21 362 8.471862395334 9.0290410940187 3248.7655027022 29158.688034635
112	561156 6590 237 201564 1.11 37.21 362 5 5 1810 9050
124	567746 14762 1242 201456 1.287402821259 37.187402020374 360 0.099998826117 0.100011956047 36.000011153108 3.6000022352681
123	582508 14753 988 201202 1.241823474353 37.141822706334 360 0.099998827446 0.100011955817 35.999998185974 3.5999996417004
122	597261 10113 1242 201456 1.287402821259 37.187402020374 360 5 5 1800 9000
121	607374 10114 988 201202 1.241823474353 37.141822706334 360 5 5 1800 9000
120	617488 550 5239 200439 2 37 36 0 0 0 0
119	618038 767 5239 200439 2 37 36 0.023625 0.02625 0.942375 0.024675328125
118	618805 550 5239 200439 2 37 36 5 5 180 900
139	619355 12032 238 201565 1.11 37.21 362 -1.488961769576 1.4892820935974 44.259401702571 487.6940115265
138	631387 12075 238 201565 1.11 37.21 362 -1.4484613577004 1.423468459711 42.593783625671 342.49906144547
137	643462 8038 238 201565 1.11 37.21 362 36.55 36.55 13231.1 483596.705
136	651500 11629 238 201565 1.11 37.21 362 62.052977752686 1082.5370597814 205397.18114652 147506896.77724
135	663129 11627 238 201565 1.11 37.21 362 26.513052660566 32.021932530108 10234.106614659 289933.33990706
133	674756 12687 238 201565 1.11 37.21 362 -0.15311092257656 0.019374224362203 -3.3727980050434 0.34210903766773
132	687443 11590 238 201565 1.11 37.21 362 8.7121139417964 9.0150693530402 3253.6586605442 29244.610330211
134	699033 6590 238 201565 1.11 37.21 362 6 6 2172 13032
146	705623 14761 1106 201320 1.266712517716 37.166711748674 360 0.099998827396 0.100011955819 35.999998184951 3.5999996414958
145	720384 14758 994 201208 1.241823517716 37.141822748762 360 0.099998827398 0.100011955819 35.999998185039 3.5999996415134
144	735142 10123 1106 201320 1.266712517716 37.166711748674 360 6 6 2160 12960
143	745265 10115 994 201208 1.241823517716 37.141822748762 360 6 6 2160 12960
142	755380 550 5240 200440 2 37 36 0 0 0 0
141	755930 767 5240 200440 2 37 36 0.023625 0.02625 0.942375 0.024675328125
140	756697 550 5240 200440 2 37 36 6 6 216 1296
161	757247 12024 239 201566 1.11 37.21 362 -1.496353420782 1.4966188714923 45.699357977147 498.40455004448
160	769271 12077 239 201566 1.11 37.21 362 -1.451779337739 1.4279262018306 43.56457469322 346.64733094976
159	781348 8038 239 201566 1.11 37.21 362 36.55 36.55 13231.1 483596.705
158	789386 11621 239 201566 1.11 37.21 362 49.052977752686 1069.7672449136 200695.27721951 142236429.66569
157	801007 11622 239 201566 1.11 37.21 362 26.506298829227 32.118534696602 10236.44237699 290080.17830631
155	812629 12648 239 201566 1.11 37.21 362 -0.09968163229653 0.034536355439467 -2.7617001671258 0.29278947802686
154	825277 11602 239 201566 1.11 37.21 362 8.7717469111169 9.0229359302053 3253.9506422568 29249.735214556
156	836879 6590 239 201566 1.11 37.21 362 7 7 2534 17738
168	843469 14775 1308 201522 1.289466907986 37.189466105387 360 0.099998826035 0.100011955941 35.999998151394 3.5999996347855
167	858244 14772 1000 201214 1.241823561079 37.14182279138 360 0.099998827367 0.100011955815 35.999998184294 3.5999996413644
166	873016 10124 1308 201522 1.289466907986 37.189466105387 360 7 7 2520 17640
165	883140 10128 1000 201214 1.241823561079 37.14182279138 360 7 7 2520 17640
164	893268 550 5241 200441 2 37 36 0 0 0 0
163	893818 767 5241 200441 2 37 36 0.023625 0.02625 0.942375 0.024675328125
162	894585 550 5241 200441 2 37 36 7 7 252 1764
22	895135 11278 233 201639 1.11 37.24 363 0 9.3956037599819 3090.1487779211 27424.372795177
23	906413 12235 233 201639 1.11 37.24 363 -3.4383786069702 0.38004909540859 -91.162698913734 247.27657539464
24	918648 6246 233 201639 1.11 37.24 363 1 1 363 363
25	924894 11281 233 201639 1.11 37.24 363 26.487285803139 29.967589544665 10210.322312698 287561.86071498
26	936175 11295 233 201639 1.11 37.24 363 127.05297775269 1143.1458470024 229977.65691925 176836449.834
27	947470 7698 233 201639 1.11 37.24 363 36.55 36.55 13267.65 484932.6075
28	955168 11793 233 201639 1.11 37.24 363 -1.4807765622834 1.4557932513856 20.525628705142 335.07715716106
29	966961 11740 233 201639 1.11 37.24 363 -1.5034793944864 1.5024511423159 19.765750974107 483.16751284563
30	978701 514 5235 200435 2 37 36 1 1 36 36
31	979215 731 5235 200435 2 37 36 0.023625 0.02625 0.942375 0.024675328125
32	979946 514 5235 200435 2 37 36 0 0 0 0
33	980460 9749 964 201178 1.241823300899 37.141822549074 360 1 1 360 360
34	990209 9749 964 201178 1.241823300899 37.141822549074 360 1 1 360 360
35	999958 14383 964 201178 1.241823300899 37.141822549074 360 0.099998828107 0.100011955796 35.999998202168 3.5999996449392
36	1014341 14383 964 201178 1.241823300899 37.141822549074 360 0.099998828107 0.100011955796 35.999998202168 3.5999996449392
