file 1258377 1501598129                                         
version 2
run SinusoidalJammingDetail-183-20170801-16:35:05-77306
attr CACCSpacing 7
attr attackAcc -30
attr attackPos 7
attr attackSpeed 150
attr attackStart 30
attr attacker 1
attr beaconInterval 0.1
attr configname SinusoidalJammingDetail
attr controller 1
attr datetime 20170801-16:35:05
attr experiment SinusoidalJammingDetail
attr fakeAcc "(1 == 4)"
attr fakePos "(1 == 2)"
attr fakeSpeed "(1 == 3)"
attr inifile omnetpp_183.ini
attr iterationvars "$leaderSpeed=80, $controller=1, $CACCSpacing=7, $sController=\"CACC\", $attacker=1, $attackStart=30, $attackSpeed=150, $attackPos=7, $attackAcc=-30, $0=7, $1=0, $nCars=8, $platoonSize=8, $nLanes=1, $beaconInterval=0.1, $priority=2, $packetSize=200, $ploegH=0.5, $leaderHeadway=1.2, $fakeSpeed=(1 == 3), $fakeAcc=(1 == 4), $fakePos=(1 == 2)"
attr iterationvarsf leaderSpeed=80,controller=1,CACCSpacing=7,sController=CACC,attacker=1,attackStart=30,attackSpeed=150,attackPos=7,attackAcc=-30,7,0,nCars=8,platoonSize=8,nLanes=1,beaconInterval=0.1,priority=2,packetSize=200,ploegH=0.5,leaderHeadway=1.2,fakeSpeed=(1_==_3),fakeAcc=(1_==_4),fakePos=(1_==_2)-
attr leaderHeadway 1.2
attr leaderSpeed 80
attr measurement "$leaderSpeed=80, $controller=1, $CACCSpacing=7, $sController=\"CACC\", $attacker=1, $attackStart=30, $attackSpeed=150, $attackPos=7, $attackAcc=-30, $0=7, $1=0, $nCars=8, $platoonSize=8, $nLanes=1, $beaconInterval=0.1, $priority=2, $packetSize=200, $ploegH=0.5, $leaderHeadway=1.2, $fakeSpeed=(1 == 3), $fakeAcc=(1 == 4), $fakePos=(1 == 2)"
attr nCars 8
attr nLanes 1
attr network scenario
attr packetSize 200
attr platoonSize 8
attr ploegH 0.5
attr priority 2
attr processid 77306
attr repetition 3
attr replication #3
attr resultdir results
attr runnumber 183
attr sController "\"CACC\""
attr seedset 3
param **.coreDebug false
param **.debug false
param **.headway 0.1s
param **.numberOfCars 8
param **.numberOfCarsPerPlatoon 8
param **.numberOfLanes 1
param **.numericController 1
param **.traffic.nCars 8
param **.traffic.nLanes 1
param **.traffic.platoonInsertDistance 7m
param **.traffic.platoonInsertHeadway 0s
param **.traffic.platoonInsertSpeed 80kmph
param **.traffic.platoonInsertTime "1 s"
param **.traffic.platoonLeaderHeadway 1.2s
param **.traffic.platoonSize 8
param **.traffic.platooningVType "\"vtypeauto\""
param **.traffic_type "\"PlatoonsTrafficManager\""
param *.**.nic.mac1609_4.bitrate 6Mbps
param *.**.nic.mac1609_4.txPower 100mW
param *.**.nic.mac1609_4.useServiceChannel false
param *.**.nic.phy80211p.analogueModels "xmldoc(\"config.xml\")"
param *.**.nic.phy80211p.decider "xmldoc(\"config.xml\")"
param *.**.nic.phy80211p.maxTXPower 100mW
param *.**.nic.phy80211p.sensitivity -94dBm
param *.**.nic.phy80211p.thermalNoise -95dBm
param *.**.nic.phy80211p.usePropagationDelay true
param *.**.nic.phy80211p.useThermalNoise true
param *.annotations.draw false
param *.connectionManager.alpha 2.0
param *.connectionManager.carrierFrequency "5.890e9 Hz"
param *.connectionManager.pMax 100mW
param *.connectionManager.sat -94dBm
param *.connectionManager.sendDirect true
param *.manager.autoShutdown true
param *.manager.commandLine "\"sumo --remote-port $port --seed $seed --configuration-file $configFile\""
param *.manager.configFile "\"./sumocfg/freeway.sumo.cfg\""
param *.manager.host "\"localhost\""
param *.manager.margin 25
param *.manager.moduleDisplayString "\"\""
param *.manager.moduleName "\"node\""
param *.manager.moduleType "\"Car\""
param *.manager.updateInterval 0.01s
param *.node[*].appl.attackStart 30s
param *.node[*].appl.attackerType 1
param *.node[*].appl.simulationDuration "60 s"
param *.node[*].appl_type "\"SimplePlatooningApp\""
param *.node[*].helper.nCars 8
param *.node[*].helper.nLanes 1
param *.node[*].helper.platoonSize 8
param *.node[*].helper_type "\"PositionHelper\""
param *.node[*].mobility.x 0
param *.node[*].mobility.y 0
param *.node[*].mobility.z 1.895
param *.node[*].prot.attackStart 30s
param *.node[*].prot.attackerType 1
param *.node[*].prot.attackingNode 3
param *.node[*].prot.beaconingInterval 0.1s
param *.node[*].prot.fakeAcc "(1 == 4)"
param *.node[*].prot.fakePos "(1 == 2)"
param *.node[*].prot.fakeSpeed "(1 == 3)"
param *.node[*].prot.maliciousAcc "-30 mpss"
param *.node[*].prot.maliciousSpeed 150kmph
param *.node[*].prot.packetSize 200
param *.node[*].prot.priority 2
param *.node[*].prot.shiftX "7 m"
param *.node[*].prot.useControllerAcceleration true
param *.node[*].protocol_type "\"SimplePlatooningBeaconing\""
param *.node[*].scenario.accHeadway 0.1s
param *.node[*].scenario.caccC1 0.5
param *.node[*].scenario.caccOmegaN "0.2 Hz"
param *.node[*].scenario.caccSpacing 7m
param *.node[*].scenario.caccXi 1
param *.node[*].scenario.controller "\"CACC\""
param *.node[*].scenario.engineTau "0.5 s"
param *.node[*].scenario.leaderHeadway 1.2s
param *.node[*].scenario.leaderOscillationFrequency "0.2 Hz"
param *.node[*].scenario.leaderSpeed 80kmph
param *.node[*].scenario.oscillationAmplitude "10 kmph"
param *.node[*].scenario.ploegH 0.5s
param *.node[*].scenario.ploegKd 0.7
param *.node[*].scenario.ploegKp 0.2
param *.node[*].scenario.startOscillating "5 s"
param *.node[*].scenario.useRealisticEngine false
param *.node[*].scenario_type "\"SinusoidalScenario\""
param *.node[*].unicast.packetLossRate 0
param *.obstacles.debug false
param *.playgroundSizeX 65000m
param *.playgroundSizeY 25000m
param *.playgroundSizeZ 50m
param *.world.use2D false
param *.world.useTorus false

vector 0  scenario.node[0].appl  distance  ETV
vector 1  scenario.node[0].appl  relativeSpeed  ETV
vector 2  scenario.node[0].appl  nodeId  ETV
vector 6  scenario.node[0].appl  acceleration  ETV
vector 7  scenario.node[0].appl  controllerAcceleration  ETV
vector 3  scenario.node[0].appl  speed  ETV
vector 4  scenario.node[0].appl  posx  ETV
vector 5  scenario.node[0].appl  posy  ETV
vector 22  scenario.node[1].appl  distance  ETV
vector 23  scenario.node[1].appl  relativeSpeed  ETV
vector 24  scenario.node[1].appl  nodeId  ETV
vector 28  scenario.node[1].appl  acceleration  ETV
vector 29  scenario.node[1].appl  controllerAcceleration  ETV
vector 25  scenario.node[1].appl  speed  ETV
vector 26  scenario.node[1].appl  posx  ETV
vector 27  scenario.node[1].appl  posy  ETV
vector 44  scenario.node[2].appl  distance  ETV
vector 45  scenario.node[2].appl  relativeSpeed  ETV
vector 46  scenario.node[2].appl  nodeId  ETV
vector 50  scenario.node[2].appl  acceleration  ETV
vector 51  scenario.node[2].appl  controllerAcceleration  ETV
vector 47  scenario.node[2].appl  speed  ETV
vector 48  scenario.node[2].appl  posx  ETV
vector 49  scenario.node[2].appl  posy  ETV
vector 66  scenario.node[3].appl  distance  ETV
vector 67  scenario.node[3].appl  relativeSpeed  ETV
vector 68  scenario.node[3].appl  nodeId  ETV
vector 72  scenario.node[3].appl  acceleration  ETV
vector 73  scenario.node[3].appl  controllerAcceleration  ETV
vector 69  scenario.node[3].appl  speed  ETV
vector 70  scenario.node[3].appl  posx  ETV
vector 71  scenario.node[3].appl  posy  ETV
vector 88  scenario.node[4].appl  distance  ETV
vector 89  scenario.node[4].appl  relativeSpeed  ETV
vector 90  scenario.node[4].appl  nodeId  ETV
vector 94  scenario.node[4].appl  acceleration  ETV
vector 95  scenario.node[4].appl  controllerAcceleration  ETV
vector 91  scenario.node[4].appl  speed  ETV
vector 92  scenario.node[4].appl  posx  ETV
vector 93  scenario.node[4].appl  posy  ETV
vector 110  scenario.node[5].appl  distance  ETV
vector 111  scenario.node[5].appl  relativeSpeed  ETV
vector 112  scenario.node[5].appl  nodeId  ETV
vector 116  scenario.node[5].appl  acceleration  ETV
vector 117  scenario.node[5].appl  controllerAcceleration  ETV
vector 113  scenario.node[5].appl  speed  ETV
vector 114  scenario.node[5].appl  posx  ETV
vector 115  scenario.node[5].appl  posy  ETV
vector 132  scenario.node[6].appl  distance  ETV
vector 133  scenario.node[6].appl  relativeSpeed  ETV
vector 134  scenario.node[6].appl  nodeId  ETV
vector 138  scenario.node[6].appl  acceleration  ETV
vector 139  scenario.node[6].appl  controllerAcceleration  ETV
vector 135  scenario.node[6].appl  speed  ETV
vector 136  scenario.node[6].appl  posx  ETV
vector 137  scenario.node[6].appl  posy  ETV
vector 154  scenario.node[7].appl  distance  ETV
vector 155  scenario.node[7].appl  relativeSpeed  ETV
vector 156  scenario.node[7].appl  nodeId  ETV
vector 160  scenario.node[7].appl  acceleration  ETV
vector 161  scenario.node[7].appl  controllerAcceleration  ETV
vector 157  scenario.node[7].appl  speed  ETV
vector 158  scenario.node[7].appl  posx  ETV
vector 159  scenario.node[7].appl  posy  ETV
vector 35  scenario.node[1].prot  leaderDelay  ETV
vector 33  scenario.node[1].prot  leaderDelayId  ETV
vector 36  scenario.node[1].prot  frontDelay  ETV
vector 34  scenario.node[1].prot  frontDelayId  ETV
vector 57  scenario.node[2].prot  leaderDelay  ETV
vector 55  scenario.node[2].prot  leaderDelayId  ETV
vector 79  scenario.node[3].prot  leaderDelay  ETV
vector 77  scenario.node[3].prot  leaderDelayId  ETV
vector 101  scenario.node[4].prot  leaderDelay  ETV
vector 99  scenario.node[4].prot  leaderDelayId  ETV
vector 123  scenario.node[5].prot  leaderDelay  ETV
vector 121  scenario.node[5].prot  leaderDelayId  ETV
vector 145  scenario.node[6].prot  leaderDelay  ETV
vector 143  scenario.node[6].prot  leaderDelayId  ETV
vector 167  scenario.node[7].prot  leaderDelay  ETV
vector 165  scenario.node[7].prot  leaderDelayId  ETV
vector 168  scenario.node[7].prot  frontDelay  ETV
vector 166  scenario.node[7].prot  frontDelayId  ETV
vector 58  scenario.node[2].prot  frontDelay  ETV
vector 56  scenario.node[2].prot  frontDelayId  ETV
vector 124  scenario.node[5].prot  frontDelay  ETV
vector 122  scenario.node[5].prot  frontDelayId  ETV
vector 80  scenario.node[3].prot  frontDelay  ETV
vector 78  scenario.node[3].prot  frontDelayId  ETV
vector 146  scenario.node[6].prot  frontDelay  ETV
vector 144  scenario.node[6].prot  frontDelayId  ETV
vector 102  scenario.node[4].prot  frontDelay  ETV
vector 100  scenario.node[4].prot  frontDelayId  ETV
vector 8  scenario.node[0].prot  nodeId  ETV
vector 9  scenario.node[0].prot  busyTime  ETV
vector 10  scenario.node[0].prot  collisions  ETV
vector 30  scenario.node[1].prot  nodeId  ETV
vector 31  scenario.node[1].prot  busyTime  ETV
vector 32  scenario.node[1].prot  collisions  ETV
vector 52  scenario.node[2].prot  nodeId  ETV
vector 53  scenario.node[2].prot  busyTime  ETV
vector 54  scenario.node[2].prot  collisions  ETV
vector 74  scenario.node[3].prot  nodeId  ETV
vector 75  scenario.node[3].prot  busyTime  ETV
vector 76  scenario.node[3].prot  collisions  ETV
vector 96  scenario.node[4].prot  nodeId  ETV
vector 97  scenario.node[4].prot  busyTime  ETV
vector 98  scenario.node[4].prot  collisions  ETV
vector 118  scenario.node[5].prot  nodeId  ETV
vector 119  scenario.node[5].prot  busyTime  ETV
vector 120  scenario.node[5].prot  collisions  ETV
vector 140  scenario.node[6].prot  nodeId  ETV
vector 141  scenario.node[6].prot  busyTime  ETV
vector 142  scenario.node[6].prot  collisions  ETV
vector 162  scenario.node[7].prot  nodeId  ETV
vector 163  scenario.node[7].prot  busyTime  ETV
vector 164  scenario.node[7].prot  collisions  ETV
7	11226 10423 232 245069 1.11 45.01 440 -1.5 1.5 -13.1780129316 721.55473805877
6	21649 13839 232 245069 1.11 45.01 440 -1.4722746795719 1.4513433675031 -12.857112921991 490.03240301683
5	35488 8952 232 245069 1.11 45.01 440 36.55 36.55 16082 587797.1
4	44440 13301 232 245069 1.11 45.01 440 118.56817703274 1098.3141569466 268287.62993973 198870711.35609
3	57741 13310 232 245069 1.11 45.01 440 20.932411654916 24.18693697487 9819.2340132962 219458.8125858
1	71051 7192 232 245069 1.11 45.01 440 0 0 0 0
0	78243 7632 232 245069 1.11 45.01 440 -1 -1 -440 440
2	85875 7192 232 245069 1.11 45.01 440 0 0 0 0
10	93067 633 5056 244880 2 45 44 0 0 0 0
9	93700 1154 5056 244880 2 45 44 0.022765634224 0.026261081018 1.15151080939 0.030147709265774
8	94854 589 5056 244880 2 45 44 0 0 0 0
51	95443 14415 234 245071 1.11 45.01 440 -1.5293286639097 1.52938681543 7.9359433966023 473.31151496744
50	109858 14439 234 245071 1.11 45.01 440 -1.4784118208819 1.4534828063461 8.2253310289008 319.4181105221
49	124297 9392 234 245071 1.11 45.01 440 36.55 36.55 16082 587797.1
48	133689 13745 234 245071 1.11 45.01 440 96.568177032471 1087.9283279816 259196.40087621 188482771.83355
47	147434 13753 234 245071 1.11 45.01 440 20.924861901916 24.186171637942 9936.1121058592 224708.83437217
45	161187 15113 234 245071 1.11 45.01 440 -0.47853295867141 0.011086055083169 -47.181752769606 19.537048251672
44	176300 13714 234 245071 1.11 45.01 440 2.3067572909411 7.0363355637741 2828.1152764711 18822.736819152
46	190014 7632 234 245071 1.11 45.01 440 2 2 880 1760
58	197646 17573 1046 244762 1.29918946768 44.999187052951 438 0.099998669154 0.100011964442 43.799996539263 4.3799993134355
57	215219 17614 842 245123 1.269558027376 45.069554386734 439 0.099998666525 0.100011963206 43.89999531335 4.3899990682562
56	232833 11919 1046 244762 1.29918946768 44.999187052951 438 2 2 876 1752
55	244752 11952 842 245123 1.269558027376 45.069554386734 439 2 2 878 1756
54	256704 633 5058 244882 2 45 44 0 0 0 0
53	257337 1200 5058 244882 2 45 44 0.022765707608 0.026261080401 1.151510844173 0.030147710580701
52	258537 633 5058 244882 2 45 44 2 2 88 176
73	259170 14377 235 245072 1.11 45.01 440 -1.4888807655774 1.4893729560532 11.581386366503 443.92811637142
72	273547 14396 235 245072 1.11 45.01 440 -1.4638941483515 1.4373566340002 12.116067155021 314.77013814032
71	287943 9392 235 245072 1.11 45.01 440 36.55 36.55 16082 587797.1
70	297335 13736 235 245072 1.11 45.01 440 85.568180847168 1080.6552794545 254535.39040212 183194089.8372
69	311071 13742 235 245072 1.11 45.01 440 20.935967690187 24.172673451964 9973.5180078784 226464.4713813
67	324813 14913 235 245072 1.11 45.01 440 -0.42850859341637 0.033958660896086 -37.488155329482 13.413934284843
66	339726 13742 235 245072 1.11 45.01 440 3.2808544034258 7.0696720110292 2901.7585921254 19492.634822885
68	353468 7632 235 245072 1.11 45.01 440 3 3 1320 3960
80	361100 17585 1180 244905 1.30021065114 45.000208180113 438 0.099998668515 0.100011964619 43.799996482965 4.3799993021752
79	378685 17612 848 245129 1.269558064068 45.06955441093 439 0.099998666396 0.1000119632 43.899995300854 4.389999065757
78	396297 11923 1180 244905 1.30021065114 45.000208180113 438 3 3 1314 3942
77	408220 11960 848 245129 1.269558064068 45.06955441093 439 3 3 1317 3951
76	420180 633 5059 244883 2 45 44 0 0 0 0
75	420813 1196 5059 244883 2 45 44 0.022764670916 0.026261081424 1.151509819887 0.030147664031024
74	422009 633 5059 244883 2 45 44 3 3 132 396
95	422642 14373 236 245073 1.11 45.01 440 -1.4835633720145 1.4833558220001 15.20827149075 437.10550396154
94	437015 14392 236 245073 1.11 45.01 440 -1.4536758655193 1.4275171496475 15.817838583159 311.30425300931
93	451407 9392 236 245073 1.11 45.01 440 36.55 36.55 16082 587797.1
92	460799 13747 236 245073 1.11 45.01 440 74.568180847168 1072.5229014708 249820.59143282 177899034.05042
91	474546 13741 236 245073 1.11 45.01 440 20.944667689719 24.188433192548 10002.323884426 227835.37173813
89	488287 15147 236 245073 1.11 45.01 440 -0.37338455641298 0.013354598791707 -28.927037219125 8.5118130854789
88	503434 13710 236 245073 1.11 45.01 440 4.1397900912762 7.033796358164 2955.3750868368 20039.753984349
90	517144 7632 236 245073 1.11 45.01 440 4 4 1760 7040
102	524776 18035 1312 245037 1.3060288346 45.006091320594 438 0.099907771605 0.10010284484 43.799996439986 4.3800001216587
101	542811 18051 854 245135 1.26955810076 45.069554437995 439 0.099998666272 0.100011963196 43.899995291227 4.3899990638316
100	560862 12374 1312 245037 1.3060288346 45.006091320594 438 4 4 1752 7008
99	573236 11956 854 245135 1.26955810076 45.069554437995 439 4 4 1756 7024
98	585192 633 5060 244884 2 45 44 0 0 0 0
97	585825 1195 5060 244884 2 45 44 0.022765634224 0.026261082098 1.151510792735 0.030147708391575
96	587020 633 5060 244884 2 45 44 4 4 176 704
117	587653 14816 237 245074 1.11 45.01 440 -1.5014801052698 1.5049213679775 18.86304314142 455.60614933504
116	602469 14833 237 245074 1.11 45.01 440 -1.4472993102547 1.422156909576 19.107501199957 309.25905855906
115	617302 9832 237 245074 1.11 45.01 440 36.55 36.55 16082 587797.1
114	627134 14176 237 245074 1.11 45.01 440 63.568180847168 1063.6763070921 245067.13539724 172629476.29682
113	641310 14179 237 245074 1.11 45.01 440 20.950507831399 24.409998373571 10023.972913216 228877.77523509
111	655489 15448 237 245074 1.11 45.01 440 -0.32740674639034 0.01916028676699 -21.807207175536 5.2106387558482
110	670937 14152 237 245074 1.11 45.01 440 4.853163207576 7.0187625934149 2993.8890161489 20468.721094277
112	685089 8072 237 245074 1.11 45.01 440 5 5 2200 11000
124	693161 18030 1112 244828 1.299602577756 44.99960013392 438 0.099998668791 0.100011964323 43.800009510156 4.3800019077528
123	711191 18081 860 245141 1.269558137452 45.069554467449 439 0.099998666163 0.100011963193 43.899995283989 4.389999062384
122	729272 12376 1112 244828 1.299602577756 44.99960013392 438 5 5 2190 10950
121	741648 12402 860 245141 1.269558137452 45.069554467449 439 5 5 2195 10975
120	754050 677 5061 244885 2 45 44 0 0 0 0
119	754727 1240 5061 244885 2 45 44 0.022764597532 0.026261082531 1.151509763204 0.030147661566698
118	755967 677 5061 244885 2 45 44 5 5 220 1100
139	756644 14761 238 245075 1.11 45.01 440 -1.4833385393933 1.4846827159234 21.232127021196 441.52100292908
138	771405 14802 238 245075 1.11 45.01 440 -1.451237967051 1.4280810582218 21.821730233839 313.81030800634
137	786207 9832 238 245075 1.11 45.01 440 36.55 36.55 16082 587797.1
136	796039 14178 238 245075 1.11 45.01 440 52.568178939819 1054.2734778576 240289.16662601 167414133.80685
135	810217 14194 238 245075 1.11 45.01 440 20.943901765385 24.585822032472 10040.039738531 229661.6421911
133	824411 15403 238 245075 1.11 45.01 440 -0.27032342099763 0.046328207454529 -16.257900327643 3.1650984545227
132	839814 14192 238 245075 1.11 45.01 440 5.4082549894349 7.0375579430681 3018.2901077431 20755.906353278
134	854006 8072 238 245075 1.11 45.01 440 6 6 2640 15840
146	862078 18017 1249 244974 1.305615761216 45.00561326817 438 0.099998668193 0.100011964539 43.799996460946 4.3799992977696
145	880095 18065 866 245147 1.269558174144 45.069554498768 439 0.099998666072 0.100011963186 43.899995278616 4.3899990613094
144	898160 12366 1249 244974 1.305615761216 45.00561326817 438 6 6 2628 15768
143	910526 12396 866 245147 1.269558174144 45.069554498768 439 6 6 2634 15804
142	922922 677 5062 244886 2 45 44 0 0 0 0
141	923599 1240 5062 244886 2 45 44 0.02276556084 0.026261082816 1.151510731822 0.030147705705047
140	924839 677 5062 244886 2 45 44 6 6 264 1584
161	925516 14800 239 245076 1.11 45.01 440 -1.5021746556271 1.5049027796581 24.101313329232 460.42899650299
160	940316 14821 239 245076 1.11 45.01 440 -1.4497273479254 1.4254867368109 24.091910142663 312.63925516536
159	955137 9832 239 245076 1.11 45.01 440 36.55 36.55 16082 587797.1
158	964969 14189 239 245076 1.11 45.01 440 41.568179893494 1044.4158951664 235487.30159389 162257303.74279
157	979158 14180 239 245076 1.11 45.01 440 20.946854294842 24.736382006088 10051.543023777 230225.5479359
155	993338 15696 239 245076 1.11 45.01 440 -0.22496433927978 0.0045408011328938 -11.72150254825 1.7381575366205
154	1009034 14187 239 245076 1.11 45.01 440 5.8620982044066 7.0189441899749 3042.0950978253 21055.9466634
156	1023221 8072 239 245076 1.11 45.01 440 7 7 3080 21560
168	1031293 18021 980 244696 1.29210728422 44.992104931422 438 0.099998669783 0.100011964886 43.799996601194 4.3799993258197
167	1049314 18048 872 245153 1.269558210836 45.069554531611 439 0.099998665996 0.100011963187 43.899995274767 4.3899990605396
166	1067362 12365 980 244696 1.29210728422 44.992104931422 438 7 7 3066 21462
165	1079727 12385 872 245153 1.269558210836 45.069554531611 439 7 7 3073 21511
164	1092112 677 5063 244887 2 45 44 0 0 0 0
163	1092789 1245 5063 244887 2 45 44 0.022765524148 0.026261082994 1.151510698925 0.030147704233653
162	1094034 677 5063 244887 2 45 44 7 7 308 2156
22	1094711 13793 233 245155 1.11 45.07 441 0 9.1989290462105 2745.4513488966 18901.065053658
23	1108504 14758 233 245155 1.11 45.07 441 -2.1732366878965 1.2679076663353 -69.613045513361 186.77640406623
24	1123262 7650 233 245155 1.11 45.07 441 1 1 441 441
25	1130912 13781 233 245155 1.11 45.07 441 20.917542472646 24.192349386563 9911.6496925392 223043.15952111
26	1144693 13777 233 245155 1.11 45.07 441 107.56817703247 1095.5881335463 264879.16155671 194924119.54875
27	1158470 9414 233 245155 1.11 45.07 441 36.55 36.55 16118.55 589133.0025
28	1167884 14490 233 245155 1.11 45.07 441 -1.4872877093818 1.4631892512494 4.5172554350206 319.91487459262
29	1182374 14440 233 245155 1.11 45.07 441 -1.5233934273631 1.5241492060236 5.8844727809745 471.52716249785
30	1196814 633 5057 244881 2 45 44 1 1 44 44
31	1197447 1195 5057 244881 2 45 44 0.022765670916 0.026261081885 1.151510823136 0.030147709731948
32	1198642 633 5057 244881 2 45 44 0 0 0 0
33	1199275 11948 836 245117 1.269557990684 45.069554365784 439 1 1 439 439
34	1211223 11948 836 245117 1.269557990684 45.069554365784 439 1 1 439 439
35	1223171 17603 836 245117 1.269557990684 45.069554365784 439 0.09999866665 0.100011963228 43.899995329092 4.3899990714046
36	1240774 17603 836 245117 1.269557990684 45.069554365784 439 0.09999866665 0.100011963228 43.899995329092 4.3899990714046
