file 988453 1501596654                                          
version 2
run SinusoidalJammingDetail-80-20170801-16:10:36-32589
attr CACCSpacing 9
attr attackAcc -30
attr attackPos 7
attr attackSpeed 150
attr attackStart 32
attr attacker 1
attr beaconInterval 0.1
attr configname SinusoidalJammingDetail
attr controller 1
attr datetime 20170801-16:10:36
attr experiment SinusoidalJammingDetail
attr fakeAcc "(1 == 4)"
attr fakePos "(1 == 2)"
attr fakeSpeed "(1 == 3)"
attr inifile omnetpp_80.ini
attr iterationvars "$leaderSpeed=50, $controller=1, $CACCSpacing=9, $sController=\"CACC\", $attacker=1, $attackStart=32, $attackSpeed=150, $attackPos=7, $attackAcc=-30, $0=9, $1=0, $nCars=8, $platoonSize=8, $nLanes=1, $beaconInterval=0.1, $priority=2, $packetSize=200, $ploegH=0.5, $leaderHeadway=1.2, $fakeSpeed=(1 == 3), $fakeAcc=(1 == 4), $fakePos=(1 == 2)"
attr iterationvarsf leaderSpeed=50,controller=1,CACCSpacing=9,sController=CACC,attacker=1,attackStart=32,attackSpeed=150,attackPos=7,attackAcc=-30,9,0,nCars=8,platoonSize=8,nLanes=1,beaconInterval=0.1,priority=2,packetSize=200,ploegH=0.5,leaderHeadway=1.2,fakeSpeed=(1_==_3),fakeAcc=(1_==_4),fakePos=(1_==_2)-
attr leaderHeadway 1.2
attr leaderSpeed 50
attr measurement "$leaderSpeed=50, $controller=1, $CACCSpacing=9, $sController=\"CACC\", $attacker=1, $attackStart=32, $attackSpeed=150, $attackPos=7, $attackAcc=-30, $0=9, $1=0, $nCars=8, $platoonSize=8, $nLanes=1, $beaconInterval=0.1, $priority=2, $packetSize=200, $ploegH=0.5, $leaderHeadway=1.2, $fakeSpeed=(1 == 3), $fakeAcc=(1 == 4), $fakePos=(1 == 2)"
attr nCars 8
attr nLanes 1
attr network scenario
attr packetSize 200
attr platoonSize 8
attr ploegH 0.5
attr priority 2
attr processid 32589
attr repetition 0
attr replication #0
attr resultdir results
attr runnumber 80
attr sController "\"CACC\""
attr seedset 0
param **.coreDebug false
param **.debug false
param **.headway 0.1s
param **.numberOfCars 8
param **.numberOfCarsPerPlatoon 8
param **.numberOfLanes 1
param **.numericController 1
param **.traffic.nCars 8
param **.traffic.nLanes 1
param **.traffic.platoonInsertDistance 9m
param **.traffic.platoonInsertHeadway 0s
param **.traffic.platoonInsertSpeed 50kmph
param **.traffic.platoonInsertTime "1 s"
param **.traffic.platoonLeaderHeadway 1.2s
param **.traffic.platoonSize 8
param **.traffic.platooningVType "\"vtypeauto\""
param **.traffic_type "\"PlatoonsTrafficManager\""
param *.**.nic.mac1609_4.bitrate 6Mbps
param *.**.nic.mac1609_4.txPower 100mW
param *.**.nic.mac1609_4.useServiceChannel false
param *.**.nic.phy80211p.analogueModels "xmldoc(\"config.xml\")"
param *.**.nic.phy80211p.decider "xmldoc(\"config.xml\")"
param *.**.nic.phy80211p.maxTXPower 100mW
param *.**.nic.phy80211p.sensitivity -94dBm
param *.**.nic.phy80211p.thermalNoise -95dBm
param *.**.nic.phy80211p.usePropagationDelay true
param *.**.nic.phy80211p.useThermalNoise true
param *.annotations.draw false
param *.connectionManager.alpha 2.0
param *.connectionManager.carrierFrequency "5.890e9 Hz"
param *.connectionManager.pMax 100mW
param *.connectionManager.sat -94dBm
param *.connectionManager.sendDirect true
param *.manager.autoShutdown true
param *.manager.commandLine "\"sumo --remote-port $port --seed $seed --configuration-file $configFile\""
param *.manager.configFile "\"./sumocfg/freeway.sumo.cfg\""
param *.manager.host "\"localhost\""
param *.manager.margin 25
param *.manager.moduleDisplayString "\"\""
param *.manager.moduleName "\"node\""
param *.manager.moduleType "\"Car\""
param *.manager.updateInterval 0.01s
param *.node[*].appl.attackStart 32s
param *.node[*].appl.attackerType 1
param *.node[*].appl.simulationDuration "60 s"
param *.node[*].appl_type "\"SimplePlatooningApp\""
param *.node[*].helper.nCars 8
param *.node[*].helper.nLanes 1
param *.node[*].helper.platoonSize 8
param *.node[*].helper_type "\"PositionHelper\""
param *.node[*].mobility.x 0
param *.node[*].mobility.y 0
param *.node[*].mobility.z 1.895
param *.node[*].prot.attackStart 32s
param *.node[*].prot.attackerType 1
param *.node[*].prot.attackingNode 3
param *.node[*].prot.beaconingInterval 0.1s
param *.node[*].prot.fakeAcc "(1 == 4)"
param *.node[*].prot.fakePos "(1 == 2)"
param *.node[*].prot.fakeSpeed "(1 == 3)"
param *.node[*].prot.maliciousAcc "-30 mpss"
param *.node[*].prot.maliciousSpeed 150kmph
param *.node[*].prot.packetSize 200
param *.node[*].prot.priority 2
param *.node[*].prot.shiftX "7 m"
param *.node[*].prot.useControllerAcceleration true
param *.node[*].protocol_type "\"SimplePlatooningBeaconing\""
param *.node[*].scenario.accHeadway 0.1s
param *.node[*].scenario.caccC1 0.5
param *.node[*].scenario.caccOmegaN "0.2 Hz"
param *.node[*].scenario.caccSpacing 9m
param *.node[*].scenario.caccXi 1
param *.node[*].scenario.controller "\"CACC\""
param *.node[*].scenario.engineTau "0.5 s"
param *.node[*].scenario.leaderHeadway 1.2s
param *.node[*].scenario.leaderOscillationFrequency "0.2 Hz"
param *.node[*].scenario.leaderSpeed 50kmph
param *.node[*].scenario.oscillationAmplitude "10 kmph"
param *.node[*].scenario.ploegH 0.5s
param *.node[*].scenario.ploegKd 0.7
param *.node[*].scenario.ploegKp 0.2
param *.node[*].scenario.startOscillating "5 s"
param *.node[*].scenario.useRealisticEngine false
param *.node[*].scenario_type "\"SinusoidalScenario\""
param *.node[*].unicast.packetLossRate 0
param *.obstacles.debug false
param *.playgroundSizeX 65000m
param *.playgroundSizeY 25000m
param *.playgroundSizeZ 50m
param *.world.use2D false
param *.world.useTorus false

vector 0  scenario.node[0].appl  distance  ETV
vector 1  scenario.node[0].appl  relativeSpeed  ETV
vector 2  scenario.node[0].appl  nodeId  ETV
vector 6  scenario.node[0].appl  acceleration  ETV
vector 7  scenario.node[0].appl  controllerAcceleration  ETV
vector 3  scenario.node[0].appl  speed  ETV
vector 4  scenario.node[0].appl  posx  ETV
vector 5  scenario.node[0].appl  posy  ETV
vector 22  scenario.node[1].appl  distance  ETV
vector 23  scenario.node[1].appl  relativeSpeed  ETV
vector 24  scenario.node[1].appl  nodeId  ETV
vector 28  scenario.node[1].appl  acceleration  ETV
vector 29  scenario.node[1].appl  controllerAcceleration  ETV
vector 25  scenario.node[1].appl  speed  ETV
vector 26  scenario.node[1].appl  posx  ETV
vector 27  scenario.node[1].appl  posy  ETV
vector 44  scenario.node[2].appl  distance  ETV
vector 45  scenario.node[2].appl  relativeSpeed  ETV
vector 46  scenario.node[2].appl  nodeId  ETV
vector 50  scenario.node[2].appl  acceleration  ETV
vector 51  scenario.node[2].appl  controllerAcceleration  ETV
vector 47  scenario.node[2].appl  speed  ETV
vector 48  scenario.node[2].appl  posx  ETV
vector 49  scenario.node[2].appl  posy  ETV
vector 66  scenario.node[3].appl  distance  ETV
vector 67  scenario.node[3].appl  relativeSpeed  ETV
vector 68  scenario.node[3].appl  nodeId  ETV
vector 72  scenario.node[3].appl  acceleration  ETV
vector 73  scenario.node[3].appl  controllerAcceleration  ETV
vector 69  scenario.node[3].appl  speed  ETV
vector 70  scenario.node[3].appl  posx  ETV
vector 71  scenario.node[3].appl  posy  ETV
vector 88  scenario.node[4].appl  distance  ETV
vector 89  scenario.node[4].appl  relativeSpeed  ETV
vector 90  scenario.node[4].appl  nodeId  ETV
vector 94  scenario.node[4].appl  acceleration  ETV
vector 95  scenario.node[4].appl  controllerAcceleration  ETV
vector 91  scenario.node[4].appl  speed  ETV
vector 92  scenario.node[4].appl  posx  ETV
vector 93  scenario.node[4].appl  posy  ETV
vector 110  scenario.node[5].appl  distance  ETV
vector 111  scenario.node[5].appl  relativeSpeed  ETV
vector 112  scenario.node[5].appl  nodeId  ETV
vector 116  scenario.node[5].appl  acceleration  ETV
vector 117  scenario.node[5].appl  controllerAcceleration  ETV
vector 113  scenario.node[5].appl  speed  ETV
vector 114  scenario.node[5].appl  posx  ETV
vector 115  scenario.node[5].appl  posy  ETV
vector 132  scenario.node[6].appl  distance  ETV
vector 133  scenario.node[6].appl  relativeSpeed  ETV
vector 134  scenario.node[6].appl  nodeId  ETV
vector 138  scenario.node[6].appl  acceleration  ETV
vector 139  scenario.node[6].appl  controllerAcceleration  ETV
vector 135  scenario.node[6].appl  speed  ETV
vector 136  scenario.node[6].appl  posx  ETV
vector 137  scenario.node[6].appl  posy  ETV
vector 154  scenario.node[7].appl  distance  ETV
vector 155  scenario.node[7].appl  relativeSpeed  ETV
vector 156  scenario.node[7].appl  nodeId  ETV
vector 160  scenario.node[7].appl  acceleration  ETV
vector 161  scenario.node[7].appl  controllerAcceleration  ETV
vector 157  scenario.node[7].appl  speed  ETV
vector 158  scenario.node[7].appl  posx  ETV
vector 159  scenario.node[7].appl  posy  ETV
vector 80  scenario.node[3].prot  frontDelay  ETV
vector 78  scenario.node[3].prot  frontDelayId  ETV
vector 58  scenario.node[2].prot  frontDelay  ETV
vector 56  scenario.node[2].prot  frontDelayId  ETV
vector 168  scenario.node[7].prot  frontDelay  ETV
vector 166  scenario.node[7].prot  frontDelayId  ETV
vector 35  scenario.node[1].prot  leaderDelay  ETV
vector 33  scenario.node[1].prot  leaderDelayId  ETV
vector 36  scenario.node[1].prot  frontDelay  ETV
vector 34  scenario.node[1].prot  frontDelayId  ETV
vector 57  scenario.node[2].prot  leaderDelay  ETV
vector 55  scenario.node[2].prot  leaderDelayId  ETV
vector 79  scenario.node[3].prot  leaderDelay  ETV
vector 77  scenario.node[3].prot  leaderDelayId  ETV
vector 101  scenario.node[4].prot  leaderDelay  ETV
vector 99  scenario.node[4].prot  leaderDelayId  ETV
vector 123  scenario.node[5].prot  leaderDelay  ETV
vector 121  scenario.node[5].prot  leaderDelayId  ETV
vector 145  scenario.node[6].prot  leaderDelay  ETV
vector 143  scenario.node[6].prot  leaderDelayId  ETV
vector 167  scenario.node[7].prot  leaderDelay  ETV
vector 165  scenario.node[7].prot  leaderDelayId  ETV
vector 124  scenario.node[5].prot  frontDelay  ETV
vector 122  scenario.node[5].prot  frontDelayId  ETV
vector 102  scenario.node[4].prot  frontDelay  ETV
vector 100  scenario.node[4].prot  frontDelayId  ETV
vector 146  scenario.node[6].prot  frontDelay  ETV
vector 144  scenario.node[6].prot  frontDelayId  ETV
vector 8  scenario.node[0].prot  nodeId  ETV
vector 9  scenario.node[0].prot  busyTime  ETV
vector 10  scenario.node[0].prot  collisions  ETV
vector 30  scenario.node[1].prot  nodeId  ETV
vector 31  scenario.node[1].prot  busyTime  ETV
vector 32  scenario.node[1].prot  collisions  ETV
vector 52  scenario.node[2].prot  nodeId  ETV
vector 53  scenario.node[2].prot  busyTime  ETV
vector 54  scenario.node[2].prot  collisions  ETV
vector 74  scenario.node[3].prot  nodeId  ETV
vector 75  scenario.node[3].prot  busyTime  ETV
vector 76  scenario.node[3].prot  collisions  ETV
vector 96  scenario.node[4].prot  nodeId  ETV
vector 97  scenario.node[4].prot  busyTime  ETV
vector 98  scenario.node[4].prot  collisions  ETV
vector 118  scenario.node[5].prot  nodeId  ETV
vector 119  scenario.node[5].prot  busyTime  ETV
vector 120  scenario.node[5].prot  collisions  ETV
vector 140  scenario.node[6].prot  nodeId  ETV
vector 141  scenario.node[6].prot  busyTime  ETV
vector 142  scenario.node[6].prot  collisions  ETV
vector 162  scenario.node[7].prot  nodeId  ETV
vector 163  scenario.node[7].prot  busyTime  ETV
vector 164  scenario.node[7].prot  collisions  ETV
7	11223 8273 232 193745 1.11 35.81 348 -1.5 1.5 -1.1779725339233 557.35883084302
6	19496 10924 232 193745 1.11 35.81 348 -1.472274679513 1.4513407705126 -7.7262153131295 370.89270193786
5	30420 7020 232 193745 1.11 35.81 348 36.55 36.55 12719.4 464894.07
4	37440 10467 232 193745 1.11 35.81 348 125.82875404345 611.05729701298 128771.56663057 54530515.283374
3	47907 10461 232 193745 1.11 35.81 348 12.59908680102 15.853603639796 4865.8955475041 68299.701523411
1	58368 5628 232 193745 1.11 35.81 348 0 0 0 0
0	63996 5976 232 193745 1.11 35.81 348 -1 -1 -348 348
2	69972 5628 232 193745 1.11 35.81 348 0 0 0 0
10	75600 483 5102 189146 2 35 34 0 0 0 0
9	76083 654 5102 189146 2 35 34 0.022969 0.02625 0.889219 0.023266637461
8	76737 449 5102 189146 2 35 34 0 0 0 0
51	77186 11212 234 193747 1.11 35.81 348 -1.4952754267034 1.4970992125241 36.324218905259 496.45700096363
50	88398 11267 234 193747 1.11 35.81 348 -1.4761121290563 1.4494360546511 35.474573265843 353.97969524857
49	99665 7368 234 193747 1.11 35.81 348 36.55 36.55 12719.4 464894.07
48	107033 10805 234 193747 1.11 35.81 348 99.828754043579 594.44295407274 119832.46335319 48197320.370667
47	117838 10810 234 193747 1.11 35.81 348 12.600718385035 17.426242534142 4961.2709142629 71179.261618411
45	128648 11784 234 193747 1.11 35.81 348 -0.45942601364611 0.039108605105273 -5.3416599982992 1.9297404479674
44	140432 10784 234 193747 1.11 35.81 348 8.5220790218654 9.0735113438964 3129.7078737096 28148.137608724
46	151216 5976 234 193747 1.11 35.81 348 2 2 696 1392
58	157192 13874 900 193857 1.229658300899 35.829658689743 347 0.099999141994 0.100012216056 34.699999603017 3.4699999239376
57	171066 13837 1038 193438 1.25491182126 35.754913003991 346 0.099908146775 0.100103215501 34.600013396904 3.4600032740193
56	184903 9401 900 193857 1.229658300899 35.829658689743 347 2 2 694 1388
55	194304 9368 1038 193438 1.25491182126 35.754913003991 346 2 2 692 1384
54	203672 483 5104 189148 2 35 34 0 0 0 0
53	204155 688 5104 189148 2 35 34 0.022969 0.02625 0.889219 0.023266637461
52	204843 483 5104 189148 2 35 34 2 2 68 136
73	205326 11196 235 193748 1.11 35.81 348 -1.4890877726286 1.4891492922908 39.477084419929 486.91042269865
72	216522 11265 235 193748 1.11 35.81 348 -1.4634887733029 1.4362599129383 38.069607373395 351.1037833821
71	227787 7368 235 193748 1.11 35.81 348 36.55 36.55 12719.4 464894.07
70	235155 10806 235 193748 1.11 35.81 348 86.828754043579 581.67324527806 115308.91530536 45141820.31755
69	245961 10809 235 193748 1.11 35.81 348 12.613692769581 17.680043487474 4963.663796201 71259.489066281
67	256770 11900 235 193748 1.11 35.81 348 -0.25597637776724 0.020412768889207 -2.7476276707274 0.5124105782531
66	268670 10766 235 193748 1.11 35.81 348 8.774784813744 9.0493611819022 3131.5959054688 28181.055688246
68	279436 5976 235 193748 1.11 35.81 348 3 3 1044 3132
80	285412 13871 832 193789 1.213905257536 35.813905648877 347 0.099999142213 0.100012216513 34.699999605514 3.4699999244365
79	299283 13842 1044 193444 1.254911864623 35.754913046636 346 0.099908146699 0.10010321551 34.600013396186 3.4600032738757
78	313125 9404 832 193789 1.213905257536 35.813905648877 347 3 3 1041 3123
77	322529 9365 1044 193444 1.254911864623 35.754913046636 346 3 3 1038 3114
76	331894 483 5105 189149 2 35 34 0 0 0 0
75	332377 688 5105 189149 2 35 34 0.022968 0.02625 0.889218 0.023266591524
74	333065 483 5105 189149 2 35 34 3 3 102 306
95	333548 11178 236 193749 1.11 35.81 348 -1.4821537219925 1.4817994872658 41.131658614866 478.20879659225
94	344726 11244 236 193749 1.11 35.81 348 -1.4527428031657 1.4262347656405 39.439189802786 348.0144936962
93	355970 7368 236 193749 1.11 35.81 348 36.55 36.55 12719.4 464894.07
92	363338 10817 236 193749 1.11 35.81 348 73.828754043579 568.78814511008 110784.85431845 42203264.681776
91	374155 10808 236 193749 1.11 35.81 348 12.624076830247 17.814172106527 4964.8602830304 71298.312359477
89	384963 11987 236 193749 1.11 35.81 348 -0.13774336691075 0.014563172885763 -1.5771829031162 0.14639644494641
88	396950 10802 236 193749 1.11 35.81 348 8.8877827403642 9.0268301000228 3132.0849166531 28189.610271749
90	407752 5976 236 193749 1.11 35.81 348 4 4 1392 5568
102	413728 14186 1246 193647 1.303562254892 35.803563434738 346 0.09999914247 0.10001221661 34.600000394019 3.4600000821366
101	427914 14171 1050 193450 1.254911907986 35.754913089643 346 0.09990814666 0.100103215514 34.60001339583 3.4600032738045
100	442085 9727 1246 193647 1.303562254892 35.803563434738 346 4 4 1384 5536
99	451812 9373 1050 193450 1.254911907986 35.754913089643 346 4 4 1384 5536
98	461185 483 5106 189150 2 35 34 0 0 0 0
97	461668 688 5106 189150 2 35 34 0.022969 0.02625 0.889219 0.023266637461
96	462356 483 5106 189150 2 35 34 4 4 136 544
117	462839 11554 237 193750 1.11 35.81 348 -1.4896672550429 1.4914667368177 42.911976491834 493.00670715703
116	474393 11607 237 193750 1.11 35.81 348 -1.4475618992762 1.4231673990967 40.225799789241 346.80090059606
115	486000 7716 237 193750 1.11 35.81 348 36.55 36.55 12719.4 464894.07
114	493716 11161 237 193750 1.11 35.81 348 60.828754043579 555.90431947723 106261.92733819 39383302.637132
113	504877 11161 237 193750 1.11 35.81 348 12.626712607814 17.887500447864 4966.0481587101 71336.254312148
111	516038 12156 237 193750 1.11 35.81 348 -0.077837877798185 0.039951929300271 -1.5822675777704 0.28304984149495
110	528194 11141 237 193750 1.11 35.81 348 8.8852921996756 9.0346842623571 3130.950737774 28169.307484136
112	539335 6324 237 193750 1.11 35.81 348 5 5 1740 8700
124	545659 14173 1172 193566 1.265748211529 35.765749391739 346 0.099999142532 0.100012216342 34.600000394383 3.4600000822106
123	559832 14176 1056 193456 1.25491195135 35.754913132633 346 0.099908146638 0.100103215506 34.600013395456 3.4600032737297
122	574008 9713 1172 193566 1.265748211529 35.765749391739 346 5 5 1730 8650
121	583721 9715 1056 193456 1.25491195135 35.754913132633 346 5 5 1730 8650
120	593436 517 5107 189151 2 35 34 0 0 0 0
119	593953 722 5107 189151 2 35 34 0.022968 0.02625 0.889218 0.023266591524
118	594675 517 5107 189151 2 35 34 5 5 170 850
139	595192 11522 238 193751 1.11 35.81 348 -1.4807582963705 1.4812783367737 42.688973398086 482.82573910812
138	606714 11576 238 193751 1.11 35.81 348 -1.45037392255 1.4266504772408 40.663222823666 350.54773731632
137	618290 7716 238 193751 1.11 35.81 348 36.55 36.55 12719.4 464894.07
136	626006 11164 238 193751 1.11 35.81 348 47.82875213623 542.96829925076 101737.8851147 36679671.911989
135	637170 11155 238 193751 1.11 35.81 348 12.620129200985 17.93329546674 4966.7041641956 71360.546709343
133	648325 12238 238 193751 1.11 35.81 348 -0.050797748499857 0.022609925515825 -1.0582634833201 0.078628499500505
132	660563 11166 238 193751 1.11 35.81 348 8.9369361268482 9.0142923494716 3132.0553435926 28189.03502238
134	671729 6324 238 193751 1.11 35.81 348 6 6 2088 12528
146	678053 14196 1312 193713 1.305158341619 35.805159520867 346 0.099999142431 0.100012216163 34.600000393421 3.460000082018
145	692249 14176 1062 193462 1.254911994713 35.754913175792 346 0.099908146626 0.100103215505 34.600013395252 3.4600032736889
144	706425 9720 1312 193713 1.305158341619 35.805159520867 346 6 6 2076 12456
143	716145 9704 1062 193462 1.254911994713 35.754913175792 346 6 6 2076 12456
142	725849 517 5108 189152 2 35 34 0 0 0 0
141	726366 722 5108 189152 2 35 34 0.022969 0.02625 0.889219 0.023266637461
140	727088 517 5108 189152 2 35 34 6 6 204 1224
161	727605 11540 239 193752 1.11 35.81 348 -1.4938774163822 1.4938088492534 43.752083306164 499.48853087071
160	739145 11603 239 193752 1.11 35.81 348 -1.4564665713065 1.4313865034833 40.95743129637 352.92492741552
159	750748 7716 239 193752 1.11 35.81 348 36.55 36.55 12719.4 464894.07
158	758464 11162 239 193752 1.11 35.81 348 34.82875213623 529.95739131885 97212.258649577 34092111.479654
157	769626 11162 239 193752 1.11 35.81 348 12.617540634829 17.958326420926 4966.6041965624 71360.051105959
155	780788 12385 239 193752 1.11 35.81 348 -0.030313949951598 0.011006381567279 -0.30666459504917 0.019157169926767
154	793173 11148 239 193752 1.11 35.81 348 8.9785170631218 9.0310355989004 3133.6244657726 28217.318409188
156	804321 6324 239 193752 1.11 35.81 348 7 7 2436 17052
168	810645 14168 975 193375 1.254433517716 35.754434763005 346 0.099999145882 0.100012216337 34.600000459462 3.4600000952256
167	824813 14173 1068 193468 1.254912038076 35.754913219197 346 0.099908146618 0.100103215512 34.600013395294 3.4600032736973
166	838986 9703 975 193375 1.254433517716 35.754434763005 346 7 7 2422 16954
165	848689 9708 1068 193468 1.254912038076 35.754913219197 346 7 7 2422 16954
164	858397 517 5109 189153 2 35 34 0 0 0 0
163	858914 722 5109 189153 2 35 34 0.022969 0.02625 0.889219 0.023266637461
162	859636 517 5109 189153 2 35 34 7 7 238 1666
22	860153 10814 233 193891 1.11 35.84 349 0 9.11131550734 3027.3029109993 26907.66841366
23	870967 11779 233 193891 1.11 35.84 349 -4.3158020328234 0.072861100851959 -94.13038270821 329.83139042843
24	882746 5994 233 193891 1.11 35.84 349 1 1 349 349
25	888740 10848 233 193891 1.11 35.84 349 12.594909075003 16.966846177083 4973.2039767988 71295.765374554
26	899588 10840 233 193891 1.11 35.84 349 112.82875404358 607.46484979941 124961.53540181 51737120.316383
27	910428 7390 233 193891 1.11 35.84 349 36.55 36.55 12755.95 466229.9725
28	917818 11292 233 193891 1.11 35.84 349 -1.4840815552393 1.4595456976263 30.786018515879 352.84626330309
29	929110 11257 233 193891 1.11 35.84 349 -1.5129716528829 1.512964842033 30.708782465032 505.19678895293
30	940367 483 5103 189147 2 35 34 1 1 34 34
31	940850 688 5103 189147 2 35 34 0.022969 0.02625 0.889219 0.023266637461
32	941538 483 5103 189147 2 35 34 0 0 0 0
33	942021 9375 1032 193432 1.254911777896 35.754912962161 346 1 1 346 346
34	951396 9375 1032 193432 1.254911777896 35.754912962161 346 1 1 346 346
35	960771 13841 1032 193432 1.254911777896 35.754912962161 346 0.099908146914 0.100103215485 34.600013398438 3.4600032743261
36	974612 13841 1032 193432 1.254911777896 35.754912962161 346 0.099908146914 0.100103215485 34.600013398438 3.4600032743261
