file 1682014 1501767254                                         
version 2
run SinusoidalJammingDetail-180-20170803-15:33:43-23237
attr CACCSpacing 5
attr attackAcc -30
attr attackPos 7
attr attackSpeed 150
attr attackStart 30
attr attacker 1
attr beaconInterval 0.1
attr configname SinusoidalJammingDetail
attr controller 2
attr datetime 20170803-15:33:43
attr experiment SinusoidalJammingDetail
attr fakeAcc "(1 == 4)"
attr fakePos "(1 == 2)"
attr fakeSpeed "(1 == 3)"
attr inifile omnetpp_180.ini
attr iterationvars "$leaderSpeed=50, $controller=2, $CACCSpacing=5, $sController=\"PLOEG\", $attacker=1, $attackStart=30, $attackSpeed=150, $attackPos=7, $attackAcc=-30, $0=5, $1=0.5, $nCars=8, $platoonSize=8, $nLanes=1, $beaconInterval=0.1, $priority=2, $packetSize=200, $ploegH=0.5, $leaderHeadway=1.2, $fakeSpeed=(1 == 3), $fakeAcc=(1 == 4), $fakePos=(1 == 2)"
attr iterationvarsf leaderSpeed=50,controller=2,CACCSpacing=5,sController=PLOEG,attacker=1,attackStart=30,attackSpeed=150,attackPos=7,attackAcc=-30,5,0.5,nCars=8,platoonSize=8,nLanes=1,beaconInterval=0.1,priority=2,packetSize=200,ploegH=0.5,leaderHeadway=1.2,fakeSpeed=(1_==_3),fakeAcc=(1_==_4),fakePos=(1_==_2)-
attr leaderHeadway 1.2
attr leaderSpeed 50
attr measurement "$leaderSpeed=50, $controller=2, $CACCSpacing=5, $sController=\"PLOEG\", $attacker=1, $attackStart=30, $attackSpeed=150, $attackPos=7, $attackAcc=-30, $0=5, $1=0.5, $nCars=8, $platoonSize=8, $nLanes=1, $beaconInterval=0.1, $priority=2, $packetSize=200, $ploegH=0.5, $leaderHeadway=1.2, $fakeSpeed=(1 == 3), $fakeAcc=(1 == 4), $fakePos=(1 == 2)"
attr nCars 8
attr nLanes 1
attr network scenario
attr packetSize 200
attr platoonSize 8
attr ploegH 0.5
attr priority 2
attr processid 23237
attr repetition 0
attr replication #0
attr resultdir results
attr runnumber 180
attr sController "\"PLOEG\""
attr seedset 0
param **.coreDebug false
param **.debug false
param **.headway 0.1s
param **.numberOfCars 8
param **.numberOfCarsPerPlatoon 8
param **.numberOfLanes 1
param **.numericController 2
param **.traffic.nCars 8
param **.traffic.nLanes 1
param **.traffic.platoonInsertDistance 5m
param **.traffic.platoonInsertHeadway 0.5s
param **.traffic.platoonInsertSpeed 50kmph
param **.traffic.platoonInsertTime "1 s"
param **.traffic.platoonLeaderHeadway 1.2s
param **.traffic.platoonSize 8
param **.traffic.platooningVType "\"vtypeauto\""
param **.traffic_type "\"PlatoonsTrafficManager\""
param *.**.nic.mac1609_4.bitrate 6Mbps
param *.**.nic.mac1609_4.txPower 100mW
param *.**.nic.mac1609_4.useServiceChannel false
param *.**.nic.phy80211p.analogueModels "xmldoc(\"config.xml\")"
param *.**.nic.phy80211p.decider "xmldoc(\"config.xml\")"
param *.**.nic.phy80211p.maxTXPower 100mW
param *.**.nic.phy80211p.sensitivity -94dBm
param *.**.nic.phy80211p.thermalNoise -95dBm
param *.**.nic.phy80211p.usePropagationDelay true
param *.**.nic.phy80211p.useThermalNoise true
param *.annotations.draw false
param *.connectionManager.alpha 2.0
param *.connectionManager.carrierFrequency "5.890e9 Hz"
param *.connectionManager.pMax 100mW
param *.connectionManager.sat -94dBm
param *.connectionManager.sendDirect true
param *.manager.autoShutdown true
param *.manager.commandLine "\"sumo --remote-port $port --seed $seed --configuration-file $configFile\""
param *.manager.configFile "\"./sumocfg/freeway.sumo.cfg\""
param *.manager.host "\"localhost\""
param *.manager.margin 25
param *.manager.moduleDisplayString "\"\""
param *.manager.moduleName "\"node\""
param *.manager.moduleType "\"Car\""
param *.manager.updateInterval 0.01s
param *.node[*].appl.attackStart 30s
param *.node[*].appl.attackerType 1
param *.node[*].appl.simulationDuration "60 s"
param *.node[*].appl_type "\"SimplePlatooningApp\""
param *.node[*].helper.nCars 8
param *.node[*].helper.nLanes 1
param *.node[*].helper.platoonSize 8
param *.node[*].helper_type "\"PositionHelper\""
param *.node[*].mobility.x 0
param *.node[*].mobility.y 0
param *.node[*].mobility.z 1.895
param *.node[*].prot.attackStart 30s
param *.node[*].prot.attackerType 1
param *.node[*].prot.attackingNode 3
param *.node[*].prot.beaconingInterval 0.1s
param *.node[*].prot.fakeAcc "(1 == 4)"
param *.node[*].prot.fakePos "(1 == 2)"
param *.node[*].prot.fakeSpeed "(1 == 3)"
param *.node[*].prot.maliciousAcc "-30 mpss"
param *.node[*].prot.maliciousSpeed 150kmph
param *.node[*].prot.packetSize 200
param *.node[*].prot.priority 2
param *.node[*].prot.shiftX "7 m"
param *.node[*].prot.useControllerAcceleration true
param *.node[*].protocol_type "\"SimplePlatooningBeaconing\""
param *.node[*].scenario.accHeadway 0.1s
param *.node[*].scenario.caccC1 0.5
param *.node[*].scenario.caccOmegaN "0.2 Hz"
param *.node[*].scenario.caccSpacing 5m
param *.node[*].scenario.caccXi 1
param *.node[*].scenario.controller "\"PLOEG\""
param *.node[*].scenario.engineTau "0.5 s"
param *.node[*].scenario.leaderHeadway 1.2s
param *.node[*].scenario.leaderOscillationFrequency "0.2 Hz"
param *.node[*].scenario.leaderSpeed 50kmph
param *.node[*].scenario.oscillationAmplitude "10 kmph"
param *.node[*].scenario.ploegH 0.5s
param *.node[*].scenario.ploegKd 0.7
param *.node[*].scenario.ploegKp 0.2
param *.node[*].scenario.startOscillating "5 s"
param *.node[*].scenario.useRealisticEngine false
param *.node[*].scenario_type "\"SinusoidalScenario\""
param *.node[*].unicast.packetLossRate 0
param *.obstacles.debug false
param *.playgroundSizeX 65000m
param *.playgroundSizeY 25000m
param *.playgroundSizeZ 50m
param *.world.use2D false
param *.world.useTorus false

vector 0  scenario.node[0].appl  distance  ETV
vector 1  scenario.node[0].appl  relativeSpeed  ETV
vector 2  scenario.node[0].appl  nodeId  ETV
vector 6  scenario.node[0].appl  acceleration  ETV
vector 7  scenario.node[0].appl  controllerAcceleration  ETV
vector 3  scenario.node[0].appl  speed  ETV
vector 4  scenario.node[0].appl  posx  ETV
vector 5  scenario.node[0].appl  posy  ETV
vector 22  scenario.node[1].appl  distance  ETV
vector 23  scenario.node[1].appl  relativeSpeed  ETV
vector 24  scenario.node[1].appl  nodeId  ETV
vector 28  scenario.node[1].appl  acceleration  ETV
vector 29  scenario.node[1].appl  controllerAcceleration  ETV
vector 25  scenario.node[1].appl  speed  ETV
vector 26  scenario.node[1].appl  posx  ETV
vector 27  scenario.node[1].appl  posy  ETV
vector 44  scenario.node[2].appl  distance  ETV
vector 45  scenario.node[2].appl  relativeSpeed  ETV
vector 46  scenario.node[2].appl  nodeId  ETV
vector 50  scenario.node[2].appl  acceleration  ETV
vector 51  scenario.node[2].appl  controllerAcceleration  ETV
vector 47  scenario.node[2].appl  speed  ETV
vector 48  scenario.node[2].appl  posx  ETV
vector 49  scenario.node[2].appl  posy  ETV
vector 66  scenario.node[3].appl  distance  ETV
vector 67  scenario.node[3].appl  relativeSpeed  ETV
vector 68  scenario.node[3].appl  nodeId  ETV
vector 72  scenario.node[3].appl  acceleration  ETV
vector 73  scenario.node[3].appl  controllerAcceleration  ETV
vector 69  scenario.node[3].appl  speed  ETV
vector 70  scenario.node[3].appl  posx  ETV
vector 71  scenario.node[3].appl  posy  ETV
vector 88  scenario.node[4].appl  distance  ETV
vector 89  scenario.node[4].appl  relativeSpeed  ETV
vector 90  scenario.node[4].appl  nodeId  ETV
vector 94  scenario.node[4].appl  acceleration  ETV
vector 95  scenario.node[4].appl  controllerAcceleration  ETV
vector 91  scenario.node[4].appl  speed  ETV
vector 92  scenario.node[4].appl  posx  ETV
vector 93  scenario.node[4].appl  posy  ETV
vector 110  scenario.node[5].appl  distance  ETV
vector 111  scenario.node[5].appl  relativeSpeed  ETV
vector 112  scenario.node[5].appl  nodeId  ETV
vector 116  scenario.node[5].appl  acceleration  ETV
vector 117  scenario.node[5].appl  controllerAcceleration  ETV
vector 113  scenario.node[5].appl  speed  ETV
vector 114  scenario.node[5].appl  posx  ETV
vector 115  scenario.node[5].appl  posy  ETV
vector 132  scenario.node[6].appl  distance  ETV
vector 133  scenario.node[6].appl  relativeSpeed  ETV
vector 134  scenario.node[6].appl  nodeId  ETV
vector 138  scenario.node[6].appl  acceleration  ETV
vector 139  scenario.node[6].appl  controllerAcceleration  ETV
vector 135  scenario.node[6].appl  speed  ETV
vector 136  scenario.node[6].appl  posx  ETV
vector 137  scenario.node[6].appl  posy  ETV
vector 154  scenario.node[7].appl  distance  ETV
vector 155  scenario.node[7].appl  relativeSpeed  ETV
vector 156  scenario.node[7].appl  nodeId  ETV
vector 160  scenario.node[7].appl  acceleration  ETV
vector 161  scenario.node[7].appl  controllerAcceleration  ETV
vector 157  scenario.node[7].appl  speed  ETV
vector 158  scenario.node[7].appl  posx  ETV
vector 159  scenario.node[7].appl  posy  ETV
vector 80  scenario.node[3].prot  frontDelay  ETV
vector 78  scenario.node[3].prot  frontDelayId  ETV
vector 58  scenario.node[2].prot  frontDelay  ETV
vector 56  scenario.node[2].prot  frontDelayId  ETV
vector 168  scenario.node[7].prot  frontDelay  ETV
vector 166  scenario.node[7].prot  frontDelayId  ETV
vector 35  scenario.node[1].prot  leaderDelay  ETV
vector 33  scenario.node[1].prot  leaderDelayId  ETV
vector 36  scenario.node[1].prot  frontDelay  ETV
vector 34  scenario.node[1].prot  frontDelayId  ETV
vector 57  scenario.node[2].prot  leaderDelay  ETV
vector 55  scenario.node[2].prot  leaderDelayId  ETV
vector 79  scenario.node[3].prot  leaderDelay  ETV
vector 77  scenario.node[3].prot  leaderDelayId  ETV
vector 101  scenario.node[4].prot  leaderDelay  ETV
vector 99  scenario.node[4].prot  leaderDelayId  ETV
vector 123  scenario.node[5].prot  leaderDelay  ETV
vector 121  scenario.node[5].prot  leaderDelayId  ETV
vector 145  scenario.node[6].prot  leaderDelay  ETV
vector 143  scenario.node[6].prot  leaderDelayId  ETV
vector 167  scenario.node[7].prot  leaderDelay  ETV
vector 165  scenario.node[7].prot  leaderDelayId  ETV
vector 124  scenario.node[5].prot  frontDelay  ETV
vector 122  scenario.node[5].prot  frontDelayId  ETV
vector 102  scenario.node[4].prot  frontDelay  ETV
vector 100  scenario.node[4].prot  frontDelayId  ETV
vector 146  scenario.node[6].prot  frontDelay  ETV
vector 144  scenario.node[6].prot  frontDelayId  ETV
vector 8  scenario.node[0].prot  nodeId  ETV
vector 9  scenario.node[0].prot  busyTime  ETV
vector 10  scenario.node[0].prot  collisions  ETV
vector 30  scenario.node[1].prot  nodeId  ETV
vector 31  scenario.node[1].prot  busyTime  ETV
vector 32  scenario.node[1].prot  collisions  ETV
vector 52  scenario.node[2].prot  nodeId  ETV
vector 53  scenario.node[2].prot  busyTime  ETV
vector 54  scenario.node[2].prot  collisions  ETV
vector 74  scenario.node[3].prot  nodeId  ETV
vector 75  scenario.node[3].prot  busyTime  ETV
vector 76  scenario.node[3].prot  collisions  ETV
vector 96  scenario.node[4].prot  nodeId  ETV
vector 97  scenario.node[4].prot  busyTime  ETV
vector 98  scenario.node[4].prot  collisions  ETV
vector 118  scenario.node[5].prot  nodeId  ETV
vector 119  scenario.node[5].prot  busyTime  ETV
vector 120  scenario.node[5].prot  collisions  ETV
vector 140  scenario.node[6].prot  nodeId  ETV
vector 141  scenario.node[6].prot  busyTime  ETV
vector 142  scenario.node[6].prot  collisions  ETV
vector 162  scenario.node[7].prot  nodeId  ETV
vector 163  scenario.node[7].prot  busyTime  ETV
vector 164  scenario.node[7].prot  collisions  ETV
7	11239 13860 232 328174 1.11 59.91 589 -1.5 1.5 -14.445969899918 993.24092361736
6	25099 18587 232 328174 1.11 59.91 589 -1.472274679513 1.4513434175798 -12.507264912644 675.29835211523
5	43686 12081 232 328174 1.11 59.91 589 36.55 36.55 21527.95 786846.5725
4	55767 17903 232 328174 1.11 59.91 589 146.439860916 967.42265941395 328852.28121704 216654136.47716
3	73670 17901 232 328174 1.11 59.91 589 12.599076970844 15.853603639796 8223.2832500118 115251.79065057
1	91571 9725 232 328174 1.11 59.91 589 0 0 0 0
0	101296 10314 232 328174 1.11 59.91 589 -1 -1 -589 589
2	111610 9725 232 328174 1.11 59.91 589 0 0 0 0
10	121335 858 5102 328596 2 60 59 0 0 0 0
9	122193 1154 5102 328596 2 60 59 0.022969 0.02625 1.545469 0.040493199961
8	123347 799 5102 328596 2 60 59 0 0 0 0
29	124146 19152 233 328175 1.11 59.91 589 -1.574842522317 1.5150760776263 4.5200557139187 513.4703935706
28	143298 19255 233 328175 1.11 59.91 589 -1.495098910503 1.3688591877258 6.2334474816975 370.49817139246
27	162553 12670 233 328175 1.11 59.91 589 36.55 36.55 21527.95 786846.5725
26	175223 18493 233 328175 1.11 59.91 589 130.49541816711 958.85662782033 322164.42358456 209887570.49311
25	193716 18502 233 328175 1.11 59.91 589 12.735787513835 15.917027025983 8297.7216428861 117229.45496678
23	212218 19299 233 328175 1.11 59.91 589 -3.0722023342638 1.8888535490681 -74.313320225162 610.66264689812
22	231517 18500 233 328175 1.11 59.91 589 2.9587579110791 11.944442748949 4333.3464003418 35790.372025955
24	250017 10314 233 328175 1.11 59.91 589 1 1 589 589
36	260331 23703 1032 328418 1.254912180585 59.954927603459 588 0.099908175277 0.100090259334 58.800027912054 5.8800066134038
35	284034 23703 1032 328418 1.254912180585 59.954927603459 588 0.099908175277 0.100090259334 58.800027912054 5.8800066134038
34	307737 16108 1032 328418 1.254912180585 59.954927603459 588 1 1 588 588
33	323845 16108 1032 328418 1.254912180585 59.954927603459 588 1 1 588 588
32	339953 858 5103 328597 2 60 59 0 0 0 0
31	340811 1213 5103 328597 2 60 59 0.022969 0.02625 1.545469 0.040493199961
30	342024 858 5103 328597 2 60 59 1 1 59 59
51	342882 19233 234 328176 1.11 59.91 589 -1.5876431577356 1.4260978566041 6.6865596014594 407.77174666153
50	362115 19301 234 328176 1.11 59.91 589 -1.4570270351923 1.2636062119981 5.9032671646662 298.71395166084
49	381416 12670 234 328176 1.11 59.91 589 36.55 36.55 21527.95 786846.5725
48	394086 18495 234 328176 1.11 59.91 589 114.55097541809 945.59350486445 314361.22216211 201567529.73922
47	412581 18488 234 328176 1.11 59.91 589 12.84461076581 15.969462497541 8324.519542062 117977.10863786
45	431069 19478 234 328176 1.11 59.91 589 -0.76171287612994 0.63990156765107 -26.860233650779 88.83873308511
44	450547 18498 234 328176 1.11 59.91 589 8.3928468565081 11.944442749023 5447.737380431 50740.933888248
46	469045 10314 234 328176 1.11 59.91 589 2 2 1178 2356
58	479359 23701 900 328286 1.22965859555 59.929661156976 588 0.099999174128 0.100012487893 58.800002050606 5.8800004156797
57	503060 23705 1038 328424 1.25491223377 59.954927647705 588 0.099908175406 0.100090259097 58.800027903115 5.880006611616
56	526765 16120 900 328286 1.22965859555 59.929661156976 588 2 2 1176 2352
55	542885 16117 1038 328424 1.25491223377 59.954927647705 588 2 2 1176 2352
54	559002 858 5104 328598 2 60 59 0 0 0 0
53	559860 1213 5104 328598 2 60 59 0.022969 0.02625 1.545469 0.040493199961
52	561073 858 5104 328598 2 60 59 2 2 118 236
73	561931 19261 235 328177 1.11 59.91 589 -1.5385102038073 1.3126531599505 6.0683995832126 334.42094147358
72	581192 19329 235 328177 1.11 59.91 589 -1.3911878388768 1.2086712235973 3.6084952613672 247.14013041685
71	600521 12670 235 328177 1.11 59.91 589 36.55 36.55 21527.95 786846.5725
70	613191 18507 235 328177 1.11 59.91 589 98.606532669067 932.43977929318 306544.54411844 193451463.3578
69	631698 18508 235 328177 1.11 59.91 589 12.93667223097 16.012467922469 8352.343909466 118787.20112087
67	650206 19524 235 328177 1.11 59.91 589 -0.71409783384786 0.61043719161332 -27.883400075565 72.65768581162
66	669730 18486 235 328177 1.11 59.91 589 8.4426226206353 11.944442749023 5461.2345310169 51012.919155908
68	688216 10314 235 328177 1.11 59.91 589 3 3 1767 5301
80	698530 23687 832 328212 1.213905542365 59.913908112369 588 0.099999173957 0.100012482521 58.800002059184 5.8800004173934
79	722217 23698 1044 328430 1.254912286955 59.954927691612 588 0.099908175476 0.100090258855 58.800027893837 5.8800066097604
78	745915 16114 832 328212 1.213905542365 59.913908112369 588 3 3 1764 5292
77	762029 16118 1044 328430 1.254912286955 59.954927691612 588 3 3 1764 5292
76	778147 858 5105 328599 2 60 59 0 0 0 0
75	779005 1213 5105 328599 2 60 59 0.022968 0.02625 1.545468 0.040493154024
74	780218 858 5105 328599 2 60 59 3 3 177 531
95	781076 19279 236 328178 1.11 59.91 589 -1.4600777460014 1.2567871166778 3.473463190051 280.82488278232
94	800355 19379 236 328178 1.11 59.91 589 -1.3166917772093 1.1533927322771 0.56287614520745 209.57949721504
93	819734 12670 236 328178 1.11 59.91 589 36.55 36.55 21527.95 786846.5725
92	832404 18510 236 328178 1.11 59.91 589 82.662086105347 919.44425088353 298710.67461104 185538082.04579
91	850914 18494 236 328178 1.11 59.91 589 13.017676651708 16.325291228982 8381.7258527986 119670.76639935
89	869408 19522 236 328178 1.11 59.91 589 -0.66654377249962 0.58287555314719 -29.418028285238 60.055582404354
88	888930 18494 236 328178 1.11 59.91 589 8.4864752374148 11.962628455688 5478.457146265 51367.192772944
90	907424 10314 236 328178 1.11 59.91 589 4 4 2356 9424
102	917738 24273 1246 328635 1.30356276562 60.003552078147 588 0.099999174167 0.100012478303 58.799988801707 5.8799977657495
101	942011 24292 1050 328436 1.25491234014 59.954927735001 588 0.099908175477 0.100090258651 58.800027884041 5.8800066078012
100	966303 16700 1246 328635 1.30356276562 60.003552078147 588 4 4 2352 9408
99	983003 16116 1050 328436 1.25491234014 59.954927735001 588 4 4 2352 9408
98	999119 858 5106 328600 2 60 59 0 0 0 0
97	999977 1213 5106 328600 2 60 59 0.022969 0.02625 1.545469 0.040493199961
96	1001190 858 5106 328600 2 60 59 4 4 236 944
117	1002048 19966 237 328179 1.11 59.91 589 -1.3648906345354 1.242760426959 0.27346425709472 238.37079066473
116	1022014 20006 237 328179 1.11 59.91 589 -1.2364739039192 1.1456106162756 -1.9989151520214 181.82691157311
115	1042020 13259 237 328179 1.11 59.91 589 36.55 36.55 21527.95 786846.5725
114	1055279 19083 237 328179 1.11 59.91 589 66.717639541626 906.59039084065 290862.77109164 177828191.27617
113	1074362 19076 237 328179 1.11 59.91 589 13.091965209299 16.836948142091 8412.5430713876 120616.53578386
111	1093438 20170 237 328179 1.11 59.91 589 -0.615733680322 0.55408818319512 -30.822847350448 49.359003879485
110	1113608 19094 237 328179 1.11 59.91 589 8.5260224251895 11.944446563721 5492.5198637783 51648.646216631
112	1132702 10903 237 328179 1.11 59.91 589 5 5 2945 14725
124	1143605 24283 1172 328552 1.265748712435 59.965751034227 588 0.099999174182 0.100012489022 58.800001810972 5.8800003677553
123	1167888 24273 1056 328442 1.254912393325 59.954927777911 588 0.099908175422 0.100090258511 58.800027873766 5.8800066057462
122	1192161 16719 1172 328552 1.265748712435 59.965751034227 588 5 5 2940 14700
121	1208880 16696 1056 328442 1.254912393325 59.954927777911 588 5 5 2940 14700
120	1225576 917 5107 328601 2 60 59 0 0 0 0
119	1226493 1272 5107 328601 2 60 59 0.022968 0.02625 1.545468 0.040493154024
118	1227765 917 5107 328601 2 60 59 5 5 295 1475
139	1228682 19976 238 328180 1.11 59.91 589 -1.2767512505732 1.3246310840718 -2.3493521305325 209.04450501426
138	1248658 20005 238 328180 1.11 59.91 589 -1.1628265243367 1.2371034543159 -3.2909485899948 163.20806317664
137	1268663 13259 238 328180 1.11 59.91 589 36.55 36.55 21527.95 786846.5725
136	1281922 19099 238 328180 1.11 59.91 589 50.773196792603 893.81403574197 282997.87965929 170321301.18555
135	1301021 19101 238 328180 1.11 59.91 589 13.16023938803 17.307327979429 8444.1807133907 121605.52343328
133	1320122 20185 238 328180 1.11 59.91 589 -0.58367772548427 0.5256924544906 -31.617652851615 41.47384954659
132	1340307 19088 238 328180 1.11 59.91 589 8.5622217418237 11.960861163329 5509.5241851901 51996.157906866
134	1359395 10903 238 328180 1.11 59.91 589 6 6 3534 21204
146	1370298 24297 1312 328701 1.30515887199 60.005161163758 588 0.099999174003 0.100012488794 58.800001780948 5.8800003617494
145	1394595 24273 1062 328448 1.25491244651 59.954927820545 588 0.099908175345 0.10009025843 58.800027863215 5.880006603636
144	1418868 16717 1312 328701 1.30515887199 60.005161163758 588 6 6 3528 21168
143	1435585 16700 1062 328448 1.25491244651 59.954927820545 588 6 6 3528 21168
142	1452285 917 5108 328602 2 60 59 0 0 0 0
141	1453202 1272 5108 328602 2 60 59 0.022969 0.02625 1.545469 0.040493199961
140	1454474 917 5108 328602 2 60 59 6 6 354 2124
161	1455391 19984 239 328181 1.11 59.91 589 -1.1886046061898 1.359081203923 -3.5209351135047 186.69741212483
160	1475375 20009 239 328181 1.11 59.91 589 -1.0910454212501 1.2835853348847 -3.147086870926 149.98886184589
159	1495384 13259 239 328181 1.11 59.91 589 36.55 36.55 21527.95 786846.5725
158	1508643 19088 239 328181 1.11 59.91 589 34.82875213623 881.03922629712 275118.58322756 163018924.5208
157	1527731 19080 239 328181 1.11 59.91 589 13.223228251608 17.721933601497 8475.8840933031 122610.79685216
155	1546811 20194 239 328181 1.11 59.91 589 -0.55686135322725 0.49804912123508 -31.670470426465 34.931445665992
154	1567005 19087 239 328181 1.11 59.91 589 8.595555087722 11.944444656372 5523.9304993296 52284.334515764
156	1586092 10903 239 328181 1.11 59.91 589 7 7 4123 28861
168	1596995 24268 975 328355 1.254433861475 59.954436372335 588 0.099999173852 0.100012486213 58.80000200004 5.8800004055658
167	1621263 24269 1068 328454 1.254912499695 59.954927863155 588 0.099908175275 0.100090258384 58.80002785264 5.880006601521
166	1645532 16694 975 328355 1.254433861475 59.954436372335 588 7 7 4116 28812
165	1662226 16682 1068 328454 1.254912499695 59.954927863155 588 7 7 4116 28812
164	1678908 917 5109 328603 2 60 59 0 0 0 0
163	1679825 1272 5109 328603 2 60 59 0.022969 0.02625 1.545469 0.040493199961
162	1681097 917 5109 328603 2 60 59 7 7 413 2891
