file 1685094 1501606204                                         
version 2
run SinusoidalJammingDetail-716-20170801-18:49:34-34455
attr CACCSpacing 11
attr attackAcc -30
attr attackPos 7
attr attackSpeed 150
attr attackStart 32.5
attr attacker 1
attr beaconInterval 0.1
attr configname SinusoidalJammingDetail
attr controller 1
attr datetime 20170801-18:49:34
attr experiment SinusoidalJammingDetail
attr fakeAcc "(1 == 4)"
attr fakePos "(1 == 2)"
attr fakeSpeed "(1 == 3)"
attr inifile omnetpp_716.ini
attr iterationvars "$leaderSpeed=150, $controller=1, $CACCSpacing=11, $sController=\"CACC\", $attacker=1, $attackStart=32.5, $attackSpeed=150, $attackPos=7, $attackAcc=-30, $0=11, $1=0, $nCars=8, $platoonSize=8, $nLanes=1, $beaconInterval=0.1, $priority=2, $packetSize=200, $ploegH=0.5, $leaderHeadway=1.2, $fakeSpeed=(1 == 3), $fakeAcc=(1 == 4), $fakePos=(1 == 2)"
attr iterationvarsf leaderSpeed=150,controller=1,CACCSpacing=11,sController=CACC,attacker=1,attackStart=32.5,attackSpeed=150,attackPos=7,attackAcc=-30,11,0,nCars=8,platoonSize=8,nLanes=1,beaconInterval=0.1,priority=2,packetSize=200,ploegH=0.5,leaderHeadway=1.2,fakeSpeed=(1_==_3),fakeAcc=(1_==_4),fakePos=(1_==_2)-
attr leaderHeadway 1.2
attr leaderSpeed 150
attr measurement "$leaderSpeed=150, $controller=1, $CACCSpacing=11, $sController=\"CACC\", $attacker=1, $attackStart=32.5, $attackSpeed=150, $attackPos=7, $attackAcc=-30, $0=11, $1=0, $nCars=8, $platoonSize=8, $nLanes=1, $beaconInterval=0.1, $priority=2, $packetSize=200, $ploegH=0.5, $leaderHeadway=1.2, $fakeSpeed=(1 == 3), $fakeAcc=(1 == 4), $fakePos=(1 == 2)"
attr nCars 8
attr nLanes 1
attr network scenario
attr packetSize 200
attr platoonSize 8
attr ploegH 0.5
attr priority 2
attr processid 34455
attr repetition 1
attr replication #1
attr resultdir results
attr runnumber 716
attr sController "\"CACC\""
attr seedset 1
param **.coreDebug false
param **.debug false
param **.headway 0.1s
param **.numberOfCars 8
param **.numberOfCarsPerPlatoon 8
param **.numberOfLanes 1
param **.numericController 1
param **.traffic.nCars 8
param **.traffic.nLanes 1
param **.traffic.platoonInsertDistance 11m
param **.traffic.platoonInsertHeadway 0s
param **.traffic.platoonInsertSpeed 150kmph
param **.traffic.platoonInsertTime "1 s"
param **.traffic.platoonLeaderHeadway 1.2s
param **.traffic.platoonSize 8
param **.traffic.platooningVType "\"vtypeauto\""
param **.traffic_type "\"PlatoonsTrafficManager\""
param *.**.nic.mac1609_4.bitrate 6Mbps
param *.**.nic.mac1609_4.txPower 100mW
param *.**.nic.mac1609_4.useServiceChannel false
param *.**.nic.phy80211p.analogueModels "xmldoc(\"config.xml\")"
param *.**.nic.phy80211p.decider "xmldoc(\"config.xml\")"
param *.**.nic.phy80211p.maxTXPower 100mW
param *.**.nic.phy80211p.sensitivity -94dBm
param *.**.nic.phy80211p.thermalNoise -95dBm
param *.**.nic.phy80211p.usePropagationDelay true
param *.**.nic.phy80211p.useThermalNoise true
param *.annotations.draw false
param *.connectionManager.alpha 2.0
param *.connectionManager.carrierFrequency "5.890e9 Hz"
param *.connectionManager.pMax 100mW
param *.connectionManager.sat -94dBm
param *.connectionManager.sendDirect true
param *.manager.autoShutdown true
param *.manager.commandLine "\"sumo --remote-port $port --seed $seed --configuration-file $configFile\""
param *.manager.configFile "\"./sumocfg/freeway.sumo.cfg\""
param *.manager.host "\"localhost\""
param *.manager.margin 25
param *.manager.moduleDisplayString "\"\""
param *.manager.moduleName "\"node\""
param *.manager.moduleType "\"Car\""
param *.manager.updateInterval 0.01s
param *.node[*].appl.attackStart 32.5s
param *.node[*].appl.attackerType 1
param *.node[*].appl.simulationDuration "60 s"
param *.node[*].appl_type "\"SimplePlatooningApp\""
param *.node[*].helper.nCars 8
param *.node[*].helper.nLanes 1
param *.node[*].helper.platoonSize 8
param *.node[*].helper_type "\"PositionHelper\""
param *.node[*].mobility.x 0
param *.node[*].mobility.y 0
param *.node[*].mobility.z 1.895
param *.node[*].prot.attackStart 32.5s
param *.node[*].prot.attackerType 1
param *.node[*].prot.attackingNode 3
param *.node[*].prot.beaconingInterval 0.1s
param *.node[*].prot.fakeAcc "(1 == 4)"
param *.node[*].prot.fakePos "(1 == 2)"
param *.node[*].prot.fakeSpeed "(1 == 3)"
param *.node[*].prot.maliciousAcc "-30 mpss"
param *.node[*].prot.maliciousSpeed 150kmph
param *.node[*].prot.packetSize 200
param *.node[*].prot.priority 2
param *.node[*].prot.shiftX "7 m"
param *.node[*].prot.useControllerAcceleration true
param *.node[*].protocol_type "\"SimplePlatooningBeaconing\""
param *.node[*].scenario.accHeadway 0.1s
param *.node[*].scenario.caccC1 0.5
param *.node[*].scenario.caccOmegaN "0.2 Hz"
param *.node[*].scenario.caccSpacing 11m
param *.node[*].scenario.caccXi 1
param *.node[*].scenario.controller "\"CACC\""
param *.node[*].scenario.engineTau "0.5 s"
param *.node[*].scenario.leaderHeadway 1.2s
param *.node[*].scenario.leaderOscillationFrequency "0.2 Hz"
param *.node[*].scenario.leaderSpeed 150kmph
param *.node[*].scenario.oscillationAmplitude "10 kmph"
param *.node[*].scenario.ploegH 0.5s
param *.node[*].scenario.ploegKd 0.7
param *.node[*].scenario.ploegKp 0.2
param *.node[*].scenario.startOscillating "5 s"
param *.node[*].scenario.useRealisticEngine false
param *.node[*].scenario_type "\"SinusoidalScenario\""
param *.node[*].unicast.packetLossRate 0
param *.obstacles.debug false
param *.playgroundSizeX 65000m
param *.playgroundSizeY 25000m
param *.playgroundSizeZ 50m
param *.world.use2D false
param *.world.useTorus false

vector 0  scenario.node[0].appl  distance  ETV
vector 1  scenario.node[0].appl  relativeSpeed  ETV
vector 2  scenario.node[0].appl  nodeId  ETV
vector 6  scenario.node[0].appl  acceleration  ETV
vector 7  scenario.node[0].appl  controllerAcceleration  ETV
vector 3  scenario.node[0].appl  speed  ETV
vector 4  scenario.node[0].appl  posx  ETV
vector 5  scenario.node[0].appl  posy  ETV
vector 22  scenario.node[1].appl  distance  ETV
vector 23  scenario.node[1].appl  relativeSpeed  ETV
vector 24  scenario.node[1].appl  nodeId  ETV
vector 28  scenario.node[1].appl  acceleration  ETV
vector 29  scenario.node[1].appl  controllerAcceleration  ETV
vector 25  scenario.node[1].appl  speed  ETV
vector 26  scenario.node[1].appl  posx  ETV
vector 27  scenario.node[1].appl  posy  ETV
vector 44  scenario.node[2].appl  distance  ETV
vector 45  scenario.node[2].appl  relativeSpeed  ETV
vector 46  scenario.node[2].appl  nodeId  ETV
vector 50  scenario.node[2].appl  acceleration  ETV
vector 51  scenario.node[2].appl  controllerAcceleration  ETV
vector 47  scenario.node[2].appl  speed  ETV
vector 48  scenario.node[2].appl  posx  ETV
vector 49  scenario.node[2].appl  posy  ETV
vector 66  scenario.node[3].appl  distance  ETV
vector 67  scenario.node[3].appl  relativeSpeed  ETV
vector 68  scenario.node[3].appl  nodeId  ETV
vector 72  scenario.node[3].appl  acceleration  ETV
vector 73  scenario.node[3].appl  controllerAcceleration  ETV
vector 69  scenario.node[3].appl  speed  ETV
vector 70  scenario.node[3].appl  posx  ETV
vector 71  scenario.node[3].appl  posy  ETV
vector 88  scenario.node[4].appl  distance  ETV
vector 89  scenario.node[4].appl  relativeSpeed  ETV
vector 90  scenario.node[4].appl  nodeId  ETV
vector 94  scenario.node[4].appl  acceleration  ETV
vector 95  scenario.node[4].appl  controllerAcceleration  ETV
vector 91  scenario.node[4].appl  speed  ETV
vector 92  scenario.node[4].appl  posx  ETV
vector 93  scenario.node[4].appl  posy  ETV
vector 110  scenario.node[5].appl  distance  ETV
vector 111  scenario.node[5].appl  relativeSpeed  ETV
vector 112  scenario.node[5].appl  nodeId  ETV
vector 116  scenario.node[5].appl  acceleration  ETV
vector 117  scenario.node[5].appl  controllerAcceleration  ETV
vector 113  scenario.node[5].appl  speed  ETV
vector 114  scenario.node[5].appl  posx  ETV
vector 115  scenario.node[5].appl  posy  ETV
vector 132  scenario.node[6].appl  distance  ETV
vector 133  scenario.node[6].appl  relativeSpeed  ETV
vector 134  scenario.node[6].appl  nodeId  ETV
vector 138  scenario.node[6].appl  acceleration  ETV
vector 139  scenario.node[6].appl  controllerAcceleration  ETV
vector 135  scenario.node[6].appl  speed  ETV
vector 136  scenario.node[6].appl  posx  ETV
vector 137  scenario.node[6].appl  posy  ETV
vector 154  scenario.node[7].appl  distance  ETV
vector 155  scenario.node[7].appl  relativeSpeed  ETV
vector 156  scenario.node[7].appl  nodeId  ETV
vector 160  scenario.node[7].appl  acceleration  ETV
vector 161  scenario.node[7].appl  controllerAcceleration  ETV
vector 157  scenario.node[7].appl  speed  ETV
vector 158  scenario.node[7].appl  posx  ETV
vector 159  scenario.node[7].appl  posy  ETV
vector 58  scenario.node[2].prot  frontDelay  ETV
vector 56  scenario.node[2].prot  frontDelayId  ETV
vector 102  scenario.node[4].prot  frontDelay  ETV
vector 100  scenario.node[4].prot  frontDelayId  ETV
vector 146  scenario.node[6].prot  frontDelay  ETV
vector 144  scenario.node[6].prot  frontDelayId  ETV
vector 168  scenario.node[7].prot  frontDelay  ETV
vector 166  scenario.node[7].prot  frontDelayId  ETV
vector 124  scenario.node[5].prot  frontDelay  ETV
vector 122  scenario.node[5].prot  frontDelayId  ETV
vector 35  scenario.node[1].prot  leaderDelay  ETV
vector 33  scenario.node[1].prot  leaderDelayId  ETV
vector 36  scenario.node[1].prot  frontDelay  ETV
vector 34  scenario.node[1].prot  frontDelayId  ETV
vector 57  scenario.node[2].prot  leaderDelay  ETV
vector 55  scenario.node[2].prot  leaderDelayId  ETV
vector 79  scenario.node[3].prot  leaderDelay  ETV
vector 77  scenario.node[3].prot  leaderDelayId  ETV
vector 101  scenario.node[4].prot  leaderDelay  ETV
vector 99  scenario.node[4].prot  leaderDelayId  ETV
vector 123  scenario.node[5].prot  leaderDelay  ETV
vector 121  scenario.node[5].prot  leaderDelayId  ETV
vector 145  scenario.node[6].prot  leaderDelay  ETV
vector 143  scenario.node[6].prot  leaderDelayId  ETV
vector 167  scenario.node[7].prot  leaderDelay  ETV
vector 165  scenario.node[7].prot  leaderDelayId  ETV
vector 80  scenario.node[3].prot  frontDelay  ETV
vector 78  scenario.node[3].prot  frontDelayId  ETV
vector 8  scenario.node[0].prot  nodeId  ETV
vector 9  scenario.node[0].prot  busyTime  ETV
vector 10  scenario.node[0].prot  collisions  ETV
vector 30  scenario.node[1].prot  nodeId  ETV
vector 31  scenario.node[1].prot  busyTime  ETV
vector 32  scenario.node[1].prot  collisions  ETV
vector 52  scenario.node[2].prot  nodeId  ETV
vector 53  scenario.node[2].prot  busyTime  ETV
vector 54  scenario.node[2].prot  collisions  ETV
vector 74  scenario.node[3].prot  nodeId  ETV
vector 75  scenario.node[3].prot  busyTime  ETV
vector 76  scenario.node[3].prot  collisions  ETV
vector 96  scenario.node[4].prot  nodeId  ETV
vector 97  scenario.node[4].prot  busyTime  ETV
vector 98  scenario.node[4].prot  collisions  ETV
vector 118  scenario.node[5].prot  nodeId  ETV
vector 119  scenario.node[5].prot  busyTime  ETV
vector 120  scenario.node[5].prot  collisions  ETV
vector 140  scenario.node[6].prot  nodeId  ETV
vector 141  scenario.node[6].prot  busyTime  ETV
vector 142  scenario.node[6].prot  collisions  ETV
vector 162  scenario.node[7].prot  nodeId  ETV
vector 163  scenario.node[7].prot  busyTime  ETV
vector 164  scenario.node[7].prot  collisions  ETV
7	11253 13862 232 328174 1.11 59.91 589 -1.5 1.5 -14.445978168666 993.24092374633
6	25115 18591 232 328174 1.11 59.91 589 -1.4722746794739 1.4513434175775 -12.507273387293 675.29835233824
5	43706 12081 232 328174 1.11 59.91 589 36.55 36.55 21527.95 786846.5725
4	55787 17919 232 328174 1.11 59.91 589 141.77205924948 2596.0881918363 807119.61314387 1402239751.833
3	73706 17882 232 328174 1.11 59.91 589 40.376854748618 43.631381416411 24584.394369227 1026576.1694128
1	91588 9725 232 328174 1.11 59.91 589 0 0 0 0
0	101313 10314 232 328174 1.11 59.91 589 -1 -1 -589 589
2	111627 9725 232 328174 1.11 59.91 589 0 0 0 0
10	121352 858 5168 328662 2 60 59 0 0 0 0
9	122210 1154 5168 328662 2 60 59 0.023297 0.02625 1.545797 0.040508375209
8	123364 799 5168 328662 2 60 59 0 0 0 0
29	124163 19455 233 328175 1.11 59.91 589 -1.5555551920973 1.5570065806119 -0.45358292699431 530.86493123777
28	143618 19509 233 328175 1.11 59.91 589 -1.4954736412641 1.476140170606 -0.42969554386048 356.9524383566
27	163127 12670 233 328175 1.11 59.91 589 36.55 36.55 21527.95 786846.5725
26	175797 18487 233 328175 1.11 59.91 589 126.77205924988 2570.9800024196 796810.95890861 1371566561.9227
25	194284 18495 233 328175 1.11 59.91 589 40.360517330394 43.640189945694 24483.730774075 1018075.7908941
23	212779 19530 233 328175 1.11 59.91 589 -1.2755473621035 2.1868022731899 100.78866788573 299.45744666185
22	232309 18504 233 328175 1.11 59.91 589 8.8022067035597 21.702764611496 7950.6409633631 115953.11322839
24	250813 10314 233 328175 1.11 59.91 589 1 1 589 589
36	261127 23717 1238 328624 1.297802501039 59.997806713311 588 0.09999878866 0.100012163378 58.800003012826 5.880000610429
35	284844 23717 1238 328624 1.297802501039 59.997806713311 588 0.09999878866 0.100012163378 58.800003012826 5.880000610429
34	308561 16134 1238 328624 1.297802501039 59.997806713311 588 1 1 588 588
33	324695 16134 1238 328624 1.297802501039 59.997806713311 588 1 1 588 588
32	340829 858 5169 328663 2 60 59 0 0 0 0
31	341687 1213 5169 328663 2 60 59 0.023297 0.02625 1.545797 0.040508375209
30	342900 858 5169 328663 2 60 59 1 1 59 59
51	343758 19400 234 328176 1.11 59.91 589 -1.509213596604 1.5122039307383 -1.5349253237997 506.65517225247
50	363158 19471 234 328176 1.11 59.91 589 -1.4841297360832 1.4673660728072 -1.5689750636383 354.568389058
49	382629 12670 234 328176 1.11 59.91 589 36.55 36.55 21527.95 786846.5725
48	395299 18473 234 328176 1.11 59.91 589 111.77205924988 2548.4427973335 786910.97959206 1343092474.4669
47	413772 18496 234 328176 1.11 59.91 589 40.299655810881 43.628786597664 24408.318825027 1011897.8464252
45	432268 19951 234 328176 1.11 59.91 589 -0.010773792808216 0.48477238964817 75.416246003597 27.110414953537
44	452219 18463 234 328176 1.11 59.91 589 10.992130810089 18.534924409839 7542.4710775681 100750.51906172
46	470682 10314 234 328176 1.11 59.91 589 2 2 1178 2356
58	480996 23698 832 328212 1.212435850589 59.912439774539 588 0.099998788774 0.10001216383 58.800002724504 5.8800005527664
57	504694 23699 1244 328630 1.297802551073 59.997806788517 588 0.099998788698 0.100012163416 58.800003037998 5.8800006154634
56	528393 16127 832 328212 1.212435850589 59.912439774539 588 2 2 1176 2352
55	544520 16117 1244 328630 1.297802551073 59.997806788517 588 2 2 1176 2352
54	560637 858 5170 328664 2 60 59 0 0 0 0
53	561495 1213 5170 328664 2 60 59 0.023296 0.02625 1.545796 0.040508328616
52	562708 858 5170 328664 2 60 59 2 2 118 236
73	563566 19377 235 328177 1.11 59.91 589 -1.4954488807893 1.4986508406297 -2.9496204745948 494.17777134715
72	582943 19413 235 328177 1.11 59.91 589 -1.4697266324674 1.4522561965705 -3.0440782798387 350.06472815865
71	602356 12670 235 328177 1.11 59.91 589 36.55 36.55 21527.95 786846.5725
70	615026 18508 235 328177 1.11 59.91 589 96.772059249878 2526.3534161143 777176.82943689 1315644940.2084
69	633534 18505 235 328177 1.11 59.91 589 39.95125121126 43.613786586721 24337.373298898 1006122.6230695
67	652039 19803 235 328177 1.11 59.91 589 -0.021936206482252 0.43265108195005 70.961215879403 23.108626837299
66	671842 18472 235 328177 1.11 59.91 589 10.980931614816 18.086421588419 7376.7312446407 95648.077173848
68	690314 10314 235 328177 1.11 59.91 589 3 3 1767 5301
80	700628 23705 1312 328701 1.307224601108 60.007215862243 588 0.099998788716 0.100012155903 58.799990061689 5.879998020059
79	724333 23709 1250 328636 1.297802601108 59.997806862239 588 0.099998788716 0.100012163467 58.800003061685 5.8800006202008
78	748042 16116 1312 328701 1.307224601108 60.007215862243 588 3 3 1764 5292
77	764158 16118 1250 328636 1.297802601108 59.997806862239 588 3 3 1764 5292
76	780276 858 5171 328665 2 60 59 0 0 0 0
75	781134 1213 5171 328665 2 60 59 0.023297 0.02625 1.545797 0.040508375209
74	782347 858 5171 328665 2 60 59 3 3 177 531
95	783205 19364 236 328178 1.11 59.91 589 -1.5015734350113 1.506086239001 -4.7410086413491 503.34547825103
94	802569 19427 236 328178 1.11 59.91 589 -1.46716202919 1.4503898350611 -4.8951246700476 350.96398316939
93	821996 12670 236 328178 1.11 59.91 589 36.55 36.55 21527.95 786846.5725
92	834666 18488 236 328178 1.11 59.91 589 81.772059249878 2504.8184645691 767593.12757032 1289154655.6527
91	853154 18494 236 328178 1.11 59.91 589 39.672322866212 43.609774304364 24271.958917488 1000832.1482879
89	871648 19854 236 328178 1.11 59.91 589 -0.013223225592235 0.37549649809269 65.444822193056 19.588284988936
88	891502 18469 236 328178 1.11 59.91 589 10.99999998595 17.53123984413 7226.3935789473 91126.998812631
90	909971 10314 236 328178 1.11 59.91 589 4 4 2356 9424
102	920285 24279 902 328282 1.235039950658 59.935043920066 588 0.099998788804 0.100012163944 58.800002769962 5.8800005618579
101	944564 24290 1256 328642 1.297802651142 59.997806934121 588 0.099998788728 0.10001216353 58.800003083533 5.8800006245704
100	968854 16709 902 328282 1.235039950658 59.935043920066 588 4 4 2352 9408
99	985563 16121 1256 328642 1.297802651142 59.997806934121 588 4 4 2352 9408
98	1001684 858 5172 328666 2 60 59 0 0 0 0
97	1002542 1213 5172 328666 2 60 59 0.023297 0.02625 1.545797 0.040508375209
96	1003755 858 5172 328666 2 60 59 4 4 236 944
117	1004613 19932 237 328179 1.11 59.91 589 -1.5284774904616 1.5300606340192 -6.9279988324304 518.57286399243
116	1024545 20004 237 328179 1.11 59.91 589 -1.4661745409356 1.4484846932703 -7.0852595069681 351.54197361587
115	1044549 13259 237 328179 1.11 59.91 589 36.55 36.55 21527.95 786846.5725
114	1057808 19069 237 328179 1.11 59.91 589 66.772059249878 2483.898284254 758145.53228219 1263553601.4916
113	1076877 19067 237 328179 1.11 59.91 589 39.444700672988 43.606819123954 24212.680346287 996065.07412108
111	1095944 20406 237 328179 1.11 59.91 589 -0.02020617406459 0.34215460343904 59.327522447902 16.820025509114
110	1116350 19063 237 328179 1.11 59.91 589 10.976768406076 16.915785361357 7090.4097167011 87173.100261773
112	1135413 10903 237 328179 1.11 59.91 589 5 5 2945 14725
124	1146316 24303 1178 328558 1.297389300901 59.997380395484 588 0.099998788826 0.100012155312 58.799989895137 5.8799979867484
123	1170619 24297 1262 328648 1.297802701177 59.997807003962 588 0.09999878873 0.100012163606 58.800003103339 5.8800006285316
122	1194916 16727 1178 328558 1.297389300901 59.997380395484 588 5 5 2940 14700
121	1211643 16718 1262 328648 1.297802701177 59.997807003962 588 5 5 2940 14700
120	1228361 917 5173 328667 2 60 59 0 0 0 0
119	1229278 1272 5173 328667 2 60 59 0.023297 0.02625 1.545797 0.040508375209
118	1230550 917 5173 328667 2 60 59 5 5 295 1475
139	1231467 19940 238 328180 1.11 59.91 589 -1.4999727098306 1.5046152425073 -9.2524856693701 500.91527380548
138	1251407 19996 238 328180 1.11 59.91 589 -1.4605505403345 1.4432664544969 -9.5361457771375 349.24160103991
137	1271403 13259 238 328180 1.11 59.91 589 36.55 36.55 21527.95 786846.5725
136	1284662 19087 238 328180 1.11 59.91 589 51.772061157227 2463.6410691688 748811.58008739 1238743260.4613
135	1303749 19070 238 328180 1.11 59.91 589 39.262456398009 43.599166719225 24160.022338644 991849.82947025
133	1322819 20339 238 328180 1.11 59.91 589 -0.021674885899436 0.31358944445144 52.728860238038 13.842390753669
132	1343158 19090 238 328180 1.11 59.91 589 10.996439449453 16.25230658555 6976.89903465 83939.008339428
134	1362248 10903 238 328180 1.11 59.91 589 6 6 3534 21204
146	1373151 24297 970 328350 1.248713050727 59.948704057458 588 0.09999878881 0.100012154884 58.799989807285 5.8799979691776
145	1397448 24288 1268 328654 1.297802751212 59.997807071598 588 0.099998788734 0.10001216369 58.80000312094 5.8800006320518
144	1421736 16705 970 328350 1.248713050727 59.948704057458 588 6 6 3528 21168
143	1438441 16697 1268 328654 1.297802751212 59.997807071598 588 6 6 3528 21168
142	1455138 917 5174 328668 2 60 59 0 0 0 0
141	1456055 1272 5174 328668 2 60 59 0.023297 0.02625 1.545797 0.040508375209
140	1457327 917 5174 328668 2 60 59 6 6 354 2124
161	1458244 19927 239 328181 1.11 59.91 589 -1.5093935059599 1.5126459038324 -11.850831593098 509.52321930833
160	1478171 20004 239 328181 1.11 59.91 589 -1.46196928442 1.4451435684705 -12.135059104076 351.03178852563
159	1498175 13259 239 328181 1.11 59.91 589 36.55 36.55 21527.95 786846.5725
158	1511434 19065 239 328181 1.11 59.91 589 36.772060680389 2444.0652526216 739576.07876809 1214651585.5233
157	1530499 19082 239 328181 1.11 59.91 589 39.114035795059 43.600869529947 24114.17319749 988200.48590162
155	1549581 20414 239 328181 1.11 59.91 589 -0.021906761076359 0.28967145134906 45.944502611814 11.091934739328
154	1569995 19093 239 328181 1.11 59.91 589 10.991551701335 15.570611606893 6878.5843364779 81224.74975753
156	1589088 10903 239 328181 1.11 59.91 589 7 7 4123 28861
168	1599991 24283 1040 328420 1.263894100762 59.963885122799 588 0.099998788813 0.1000121563 58.799989822591 5.8799979722394
167	1624274 24309 1274 328660 1.297802801246 59.997807136965 588 0.099998788737 0.100012163777 58.800003136273 5.8800006351184
166	1648583 16698 1040 328420 1.263894100762 59.963885122799 588 7 7 4116 28812
165	1665281 16707 1274 328660 1.297802801246 59.997807136965 588 7 7 4116 28812
164	1681988 917 5175 328669 2 60 59 0 0 0 0
163	1682905 1272 5175 328669 2 60 59 0.023297 0.02625 1.545797 0.040508375209
162	1684177 917 5175 328669 2 60 59 7 7 413 2891
