file 1683330 1501776236                                         
version 2
run SinusoidalJammingDetail-479-20170803-18:03:25-32144
attr CACCSpacing 5
attr attackAcc -30
attr attackPos 7
attr attackSpeed 150
attr attackStart 32.5
attr attacker 1
attr beaconInterval 0.1
attr configname SinusoidalJammingDetail
attr controller 3
attr datetime 20170803-18:03:25
attr experiment SinusoidalJammingDetail
attr fakeAcc "(1 == 4)"
attr fakePos "(1 == 2)"
attr fakeSpeed "(1 == 3)"
attr inifile omnetpp_479.ini
attr iterationvars "$leaderSpeed=80, $controller=3, $CACCSpacing=5, $sController=\"CONSENSUS\", $attacker=1, $attackStart=32.5, $attackSpeed=150, $attackPos=7, $attackAcc=-30, $0=5, $1=0.8, $nCars=8, $platoonSize=8, $nLanes=1, $beaconInterval=0.1, $priority=2, $packetSize=200, $ploegH=0.5, $leaderHeadway=1.2, $fakeSpeed=(1 == 3), $fakeAcc=(1 == 4), $fakePos=(1 == 2)"
attr iterationvarsf leaderSpeed=80,controller=3,CACCSpacing=5,sController=CONSENSUS,attacker=1,attackStart=32.5,attackSpeed=150,attackPos=7,attackAcc=-30,5,0.8,nCars=8,platoonSize=8,nLanes=1,beaconInterval=0.1,priority=2,packetSize=200,ploegH=0.5,leaderHeadway=1.2,fakeSpeed=(1_==_3),fakeAcc=(1_==_4),fakePos=(1_==_2)-
attr leaderHeadway 1.2
attr leaderSpeed 80
attr measurement "$leaderSpeed=80, $controller=3, $CACCSpacing=5, $sController=\"CONSENSUS\", $attacker=1, $attackStart=32.5, $attackSpeed=150, $attackPos=7, $attackAcc=-30, $0=5, $1=0.8, $nCars=8, $platoonSize=8, $nLanes=1, $beaconInterval=0.1, $priority=2, $packetSize=200, $ploegH=0.5, $leaderHeadway=1.2, $fakeSpeed=(1 == 3), $fakeAcc=(1 == 4), $fakePos=(1 == 2)"
attr nCars 8
attr nLanes 1
attr network scenario
attr packetSize 200
attr platoonSize 8
attr ploegH 0.5
attr priority 2
attr processid 32144
attr repetition 4
attr replication #4
attr resultdir results
attr runnumber 479
attr sController "\"CONSENSUS\""
attr seedset 4
param **.coreDebug false
param **.debug false
param **.headway 0.1s
param **.numberOfCars 8
param **.numberOfCarsPerPlatoon 8
param **.numberOfLanes 1
param **.numericController 3
param **.traffic.nCars 8
param **.traffic.nLanes 1
param **.traffic.platoonInsertDistance 5m
param **.traffic.platoonInsertHeadway 0.8s
param **.traffic.platoonInsertSpeed 80kmph
param **.traffic.platoonInsertTime "1 s"
param **.traffic.platoonLeaderHeadway 1.2s
param **.traffic.platoonSize 8
param **.traffic.platooningVType "\"vtypeauto\""
param **.traffic_type "\"PlatoonsTrafficManager\""
param *.**.nic.mac1609_4.bitrate 6Mbps
param *.**.nic.mac1609_4.txPower 100mW
param *.**.nic.mac1609_4.useServiceChannel false
param *.**.nic.phy80211p.analogueModels "xmldoc(\"config.xml\")"
param *.**.nic.phy80211p.decider "xmldoc(\"config.xml\")"
param *.**.nic.phy80211p.maxTXPower 100mW
param *.**.nic.phy80211p.sensitivity -94dBm
param *.**.nic.phy80211p.thermalNoise -95dBm
param *.**.nic.phy80211p.usePropagationDelay true
param *.**.nic.phy80211p.useThermalNoise true
param *.annotations.draw false
param *.connectionManager.alpha 2.0
param *.connectionManager.carrierFrequency "5.890e9 Hz"
param *.connectionManager.pMax 100mW
param *.connectionManager.sat -94dBm
param *.connectionManager.sendDirect true
param *.manager.autoShutdown true
param *.manager.commandLine "\"sumo --remote-port $port --seed $seed --configuration-file $configFile\""
param *.manager.configFile "\"./sumocfg/freeway.sumo.cfg\""
param *.manager.host "\"localhost\""
param *.manager.margin 25
param *.manager.moduleDisplayString "\"\""
param *.manager.moduleName "\"node\""
param *.manager.moduleType "\"Car\""
param *.manager.updateInterval 0.01s
param *.node[*].appl.attackStart 32.5s
param *.node[*].appl.attackerType 1
param *.node[*].appl.simulationDuration "60 s"
param *.node[*].appl_type "\"SimplePlatooningApp\""
param *.node[*].helper.nCars 8
param *.node[*].helper.nLanes 1
param *.node[*].helper.platoonSize 8
param *.node[*].helper_type "\"PositionHelper\""
param *.node[*].mobility.x 0
param *.node[*].mobility.y 0
param *.node[*].mobility.z 1.895
param *.node[*].prot.attackStart 32.5s
param *.node[*].prot.attackerType 1
param *.node[*].prot.attackingNode 3
param *.node[*].prot.beaconingInterval 0.1s
param *.node[*].prot.fakeAcc "(1 == 4)"
param *.node[*].prot.fakePos "(1 == 2)"
param *.node[*].prot.fakeSpeed "(1 == 3)"
param *.node[*].prot.maliciousAcc "-30 mpss"
param *.node[*].prot.maliciousSpeed 150kmph
param *.node[*].prot.packetSize 200
param *.node[*].prot.priority 2
param *.node[*].prot.shiftX "7 m"
param *.node[*].prot.useControllerAcceleration true
param *.node[*].protocol_type "\"SimplePlatooningBeaconing\""
param *.node[*].scenario.accHeadway 0.1s
param *.node[*].scenario.caccC1 0.5
param *.node[*].scenario.caccOmegaN "0.2 Hz"
param *.node[*].scenario.caccSpacing 5m
param *.node[*].scenario.caccXi 1
param *.node[*].scenario.controller "\"CONSENSUS\""
param *.node[*].scenario.engineTau "0.5 s"
param *.node[*].scenario.leaderHeadway 1.2s
param *.node[*].scenario.leaderOscillationFrequency "0.2 Hz"
param *.node[*].scenario.leaderSpeed 80kmph
param *.node[*].scenario.oscillationAmplitude "10 kmph"
param *.node[*].scenario.ploegH 0.5s
param *.node[*].scenario.ploegKd 0.7
param *.node[*].scenario.ploegKp 0.2
param *.node[*].scenario.startOscillating "5 s"
param *.node[*].scenario.useRealisticEngine false
param *.node[*].scenario_type "\"SinusoidalScenario\""
param *.node[*].unicast.packetLossRate 0
param *.obstacles.debug false
param *.playgroundSizeX 65000m
param *.playgroundSizeY 25000m
param *.playgroundSizeZ 50m
param *.world.use2D false
param *.world.useTorus false

vector 0  scenario.node[0].appl  distance  ETV
vector 1  scenario.node[0].appl  relativeSpeed  ETV
vector 2  scenario.node[0].appl  nodeId  ETV
vector 6  scenario.node[0].appl  acceleration  ETV
vector 7  scenario.node[0].appl  controllerAcceleration  ETV
vector 3  scenario.node[0].appl  speed  ETV
vector 4  scenario.node[0].appl  posx  ETV
vector 5  scenario.node[0].appl  posy  ETV
vector 22  scenario.node[1].appl  distance  ETV
vector 23  scenario.node[1].appl  relativeSpeed  ETV
vector 24  scenario.node[1].appl  nodeId  ETV
vector 28  scenario.node[1].appl  acceleration  ETV
vector 29  scenario.node[1].appl  controllerAcceleration  ETV
vector 25  scenario.node[1].appl  speed  ETV
vector 26  scenario.node[1].appl  posx  ETV
vector 27  scenario.node[1].appl  posy  ETV
vector 44  scenario.node[2].appl  distance  ETV
vector 45  scenario.node[2].appl  relativeSpeed  ETV
vector 46  scenario.node[2].appl  nodeId  ETV
vector 50  scenario.node[2].appl  acceleration  ETV
vector 51  scenario.node[2].appl  controllerAcceleration  ETV
vector 47  scenario.node[2].appl  speed  ETV
vector 48  scenario.node[2].appl  posx  ETV
vector 49  scenario.node[2].appl  posy  ETV
vector 66  scenario.node[3].appl  distance  ETV
vector 67  scenario.node[3].appl  relativeSpeed  ETV
vector 68  scenario.node[3].appl  nodeId  ETV
vector 72  scenario.node[3].appl  acceleration  ETV
vector 73  scenario.node[3].appl  controllerAcceleration  ETV
vector 69  scenario.node[3].appl  speed  ETV
vector 70  scenario.node[3].appl  posx  ETV
vector 71  scenario.node[3].appl  posy  ETV
vector 88  scenario.node[4].appl  distance  ETV
vector 89  scenario.node[4].appl  relativeSpeed  ETV
vector 90  scenario.node[4].appl  nodeId  ETV
vector 94  scenario.node[4].appl  acceleration  ETV
vector 95  scenario.node[4].appl  controllerAcceleration  ETV
vector 91  scenario.node[4].appl  speed  ETV
vector 92  scenario.node[4].appl  posx  ETV
vector 93  scenario.node[4].appl  posy  ETV
vector 110  scenario.node[5].appl  distance  ETV
vector 111  scenario.node[5].appl  relativeSpeed  ETV
vector 112  scenario.node[5].appl  nodeId  ETV
vector 116  scenario.node[5].appl  acceleration  ETV
vector 117  scenario.node[5].appl  controllerAcceleration  ETV
vector 113  scenario.node[5].appl  speed  ETV
vector 114  scenario.node[5].appl  posx  ETV
vector 115  scenario.node[5].appl  posy  ETV
vector 132  scenario.node[6].appl  distance  ETV
vector 133  scenario.node[6].appl  relativeSpeed  ETV
vector 134  scenario.node[6].appl  nodeId  ETV
vector 138  scenario.node[6].appl  acceleration  ETV
vector 139  scenario.node[6].appl  controllerAcceleration  ETV
vector 135  scenario.node[6].appl  speed  ETV
vector 136  scenario.node[6].appl  posx  ETV
vector 137  scenario.node[6].appl  posy  ETV
vector 154  scenario.node[7].appl  distance  ETV
vector 155  scenario.node[7].appl  relativeSpeed  ETV
vector 156  scenario.node[7].appl  nodeId  ETV
vector 160  scenario.node[7].appl  acceleration  ETV
vector 161  scenario.node[7].appl  controllerAcceleration  ETV
vector 157  scenario.node[7].appl  speed  ETV
vector 158  scenario.node[7].appl  posx  ETV
vector 159  scenario.node[7].appl  posy  ETV
vector 102  scenario.node[4].prot  frontDelay  ETV
vector 100  scenario.node[4].prot  frontDelayId  ETV
vector 35  scenario.node[1].prot  leaderDelay  ETV
vector 33  scenario.node[1].prot  leaderDelayId  ETV
vector 36  scenario.node[1].prot  frontDelay  ETV
vector 34  scenario.node[1].prot  frontDelayId  ETV
vector 57  scenario.node[2].prot  leaderDelay  ETV
vector 55  scenario.node[2].prot  leaderDelayId  ETV
vector 79  scenario.node[3].prot  leaderDelay  ETV
vector 77  scenario.node[3].prot  leaderDelayId  ETV
vector 101  scenario.node[4].prot  leaderDelay  ETV
vector 99  scenario.node[4].prot  leaderDelayId  ETV
vector 123  scenario.node[5].prot  leaderDelay  ETV
vector 121  scenario.node[5].prot  leaderDelayId  ETV
vector 145  scenario.node[6].prot  leaderDelay  ETV
vector 143  scenario.node[6].prot  leaderDelayId  ETV
vector 167  scenario.node[7].prot  leaderDelay  ETV
vector 165  scenario.node[7].prot  leaderDelayId  ETV
vector 80  scenario.node[3].prot  frontDelay  ETV
vector 78  scenario.node[3].prot  frontDelayId  ETV
vector 146  scenario.node[6].prot  frontDelay  ETV
vector 144  scenario.node[6].prot  frontDelayId  ETV
vector 58  scenario.node[2].prot  frontDelay  ETV
vector 56  scenario.node[2].prot  frontDelayId  ETV
vector 124  scenario.node[5].prot  frontDelay  ETV
vector 122  scenario.node[5].prot  frontDelayId  ETV
vector 168  scenario.node[7].prot  frontDelay  ETV
vector 166  scenario.node[7].prot  frontDelayId  ETV
vector 8  scenario.node[0].prot  nodeId  ETV
vector 9  scenario.node[0].prot  busyTime  ETV
vector 10  scenario.node[0].prot  collisions  ETV
vector 30  scenario.node[1].prot  nodeId  ETV
vector 31  scenario.node[1].prot  busyTime  ETV
vector 32  scenario.node[1].prot  collisions  ETV
vector 52  scenario.node[2].prot  nodeId  ETV
vector 53  scenario.node[2].prot  busyTime  ETV
vector 54  scenario.node[2].prot  collisions  ETV
vector 74  scenario.node[3].prot  nodeId  ETV
vector 75  scenario.node[3].prot  busyTime  ETV
vector 76  scenario.node[3].prot  collisions  ETV
vector 96  scenario.node[4].prot  nodeId  ETV
vector 97  scenario.node[4].prot  busyTime  ETV
vector 98  scenario.node[4].prot  collisions  ETV
vector 118  scenario.node[5].prot  nodeId  ETV
vector 119  scenario.node[5].prot  busyTime  ETV
vector 120  scenario.node[5].prot  collisions  ETV
vector 140  scenario.node[6].prot  nodeId  ETV
vector 141  scenario.node[6].prot  busyTime  ETV
vector 142  scenario.node[6].prot  collisions  ETV
vector 162  scenario.node[7].prot  nodeId  ETV
vector 163  scenario.node[7].prot  busyTime  ETV
vector 164  scenario.node[7].prot  collisions  ETV
7	11271 13855 232 328174 1.11 59.91 589 -1.5 1.5 -14.445957496355 993.24092342393
6	25126 18568 232 328174 1.11 59.91 589 -1.4722746795719 1.4513434175793 -12.507252200722 675.29835178084
5	43694 12081 232 328174 1.11 59.91 589 36.55 36.55 21527.95 786846.5725
4	55775 17902 232 328174 1.11 59.91 589 235.94187240627 1546.9246697707 525873.96532216 553923451.46755
3	73677 17918 232 328174 1.11 59.91 589 20.932410304178 24.18693697487 13131.616571188 293209.28872176
1	91595 9725 232 328174 1.11 59.91 589 0 0 0 0
0	101320 10314 232 328174 1.11 59.91 589 -1 -1 -589 589
2	111634 9725 232 328174 1.11 59.91 589 0 0 0 0
10	121359 844 5234 323150 2 59 58 0 0 0 0
9	122203 1135 5234 323150 2 59 58 0.023625 0.02625 1.519875 0.039834703125
8	123338 786 5234 323150 2 59 58 0 0 0 0
51	124124 19633 234 328176 1.11 59.91 589 -5.0981930844126 1.5295544635705 8.9297465433892 460.41762834474
50	143757 19657 234 328176 1.11 59.91 589 -2.841596775896 1.3657765306629 12.473977961802 307.10559109936
49	163414 12670 234 328176 1.11 59.91 589 36.55 36.55 21527.95 786846.5725
48	176084 18486 234 328176 1.11 59.91 589 182.38631515503 1505.0102673515 487780.15960281 491019061.86239
47	194570 18498 234 328176 1.11 59.91 589 19.086322517741 23.468144959315 13248.899606526 298802.62958535
45	213068 19582 234 328176 1.11 59.91 589 -0.3571974773675 1.2144193587741 109.83443342745 99.715472498439
44	232650 18508 234 328176 1.11 59.91 589 22.777770996094 33.773758888339 18810.046668934 605414.97966357
46	251158 10314 234 328176 1.11 59.91 589 2 2 1178 2356
58	261472 23656 1170 328005 1.281934483526 59.881936719243 587 0.099987221067 0.100000682047 58.700002200786 5.8700004438698
57	285128 23709 970 328356 1.241824768955 59.941827255478 588 0.099987164725 0.100000681714 58.800002451589 5.8800004940334
56	308837 16090 1170 328005 1.281934483526 59.881936719243 587 2 2 1174 2348
55	324927 16124 970 328356 1.241824768955 59.941827255478 588 2 2 1176 2352
54	341051 844 5236 323152 2 59 58 0 0 0 0
53	341895 1193 5236 323152 2 59 58 0.023625 0.02625 1.519875 0.039834703125
52	343088 844 5236 323152 2 59 58 2 2 116 232
73	343932 19513 235 328177 1.11 59.91 589 -5.4980442459446 1.6612285148333 9.0135481984351 508.19029743298
72	363445 19543 235 328177 1.11 59.91 589 -3.0656126642032 1.4884711806769 12.387153677958 330.44089744581
71	382988 12670 235 328177 1.11 59.91 589 36.55 36.55 21527.95 786846.5725
70	395658 18505 235 328177 1.11 59.91 589 155.60852890015 1467.2412186453 466971.28870467 456071590.08946
69	414163 18497 235 328177 1.11 59.91 589 18.828359726248 23.466727286674 13138.986144311 294095.24510311
67	432660 19551 235 328177 1.11 59.91 589 -0.06521563881229 0.89378117300657 109.78872243576 58.269312090466
66	452211 18492 235 328177 1.11 59.91 589 22.777786254883 33.769020352712 18450.672628891 584281.19003636
68	470703 10314 235 328177 1.11 59.91 589 3 3 1767 5301
80	481017 23699 1040 328420 1.262751858276 59.962754381462 588 0.099987277182 0.100000681712 58.800002488252 5.8800005013597
79	504716 23685 976 328362 1.241824858276 59.941827381462 588 0.099987164981 0.100000681712 58.800002488252 5.880000501366
78	528401 16112 1040 328420 1.262751858276 59.962754381462 588 3 3 1764 5292
77	544513 16106 976 328362 1.241824858276 59.941827381462 588 3 3 1764 5292
76	560619 844 5237 323153 2 59 58 0 0 0 0
75	561463 1193 5237 323153 2 59 58 0.023625 0.02625 1.519875 0.039834703125
74	562656 844 5237 323153 2 59 58 3 3 174 522
95	563500 19453 236 328178 1.11 59.91 589 -5.8979091354986 1.6469052608839 10.966975755391 521.33135926273
94	582953 19491 236 328178 1.11 59.91 589 -3.2883159857086 1.4645815151823 12.308965762444 330.45957387564
93	602444 12670 236 328178 1.11 59.91 589 36.55 36.55 21527.95 786846.5725
92	615114 18489 236 328178 1.11 59.91 589 128.83075790405 1429.4878892854 446491.41977599 422926461.14688
91	633603 18502 236 328178 1.11 59.91 589 18.58068969456 23.462024390485 13029.226932697 289417.99205845
89	652105 19432 236 328178 1.11 59.91 589 0 0.66516963084722 109.63534007687 44.156500948631
88	671537 18487 236 328178 1.11 59.91 589 22.777770996094 33.753235302035 18121.673744444 564882.45465724
90	690024 10314 236 328178 1.11 59.91 589 4 4 2356 9424
102	700338 24281 904 328284 1.240527411667 59.940529976302 588 0.099987291792 0.100000682399 58.800002529697 5.8800005096478
101	724619 24288 982 328368 1.241824947597 59.941827507394 588 0.099987165099 0.100000681728 58.800002524863 5.8800005086882
100	748907 16701 904 328284 1.240527411667 59.940529976302 588 4 4 2352 9408
99	765608 16125 982 328368 1.241824947597 59.941827507394 588 4 4 2352 9408
98	781733 844 5238 323154 2 59 58 0 0 0 0
97	782577 1193 5238 323154 2 59 58 0.023625 0.02625 1.519875 0.039834703125
96	783770 844 5238 323154 2 59 58 4 4 232 928
117	784614 20032 237 328179 1.11 59.91 589 -6.2977638819204 1.5397235884965 3.3965860198185 523.8378279175
116	804646 20038 237 328179 1.11 59.91 589 -3.5121694698514 1.4045272066834 12.304764115586 332.29275846651
115	824684 13259 237 328179 1.11 59.91 589 36.55 36.55 21527.95 786846.5725
114	837943 19088 237 328179 1.11 59.91 589 102.05297927856 1391.7717991089 426308.06743902 391536658.9449
113	857031 19082 237 328179 1.11 59.91 589 18.327422962286 23.450889315017 12919.844723701 284781.56588299
111	876113 19966 237 328179 1.11 59.91 589 0 0.53433372321156 109.25911933843 35.91780655337
110	896079 19086 237 328179 1.11 59.91 589 22.777778625488 33.715867474981 17825.164692797 547300.11415013
112	915165 10903 237 328179 1.11 59.91 589 5 5 2945 14725
124	926068 24216 1242 328065 1.287391751491 59.887394096964 587 0.099987297459 0.100000682093 58.700002310544 5.8700004658169
123	950284 24274 988 328374 1.241825036919 59.941827633203 588 0.099987165177 0.100000681761 58.800002561351 5.8800005159858
122	974558 16661 1242 328065 1.287391751491 59.887394096964 587 5 5 2935 14675
121	991219 16697 988 328374 1.241825036919 59.941827633203 588 5 5 2940 14700
120	1007916 902 5239 323155 2 59 58 0 0 0 0
119	1008818 1251 5239 323155 2 59 58 0.023625 0.02625 1.519875 0.039834703125
118	1010069 902 5239 323155 2 59 58 5 5 290 1450
139	1010971 19984 238 328180 1.11 59.91 589 -6.6976219074635 1.5033775274665 6.14385678893 544.00373198413
138	1030955 20007 238 328180 1.11 59.91 589 -3.7356042653236 1.3588683880339 11.920613904922 336.79110420518
137	1050962 13259 238 328180 1.11 59.91 589 36.55 36.55 21527.95 786846.5725
136	1064221 19099 238 328180 1.11 59.91 589 75.275200653076 1354.1232893509 406395.9866759 361857525.19627
135	1083320 19100 238 328180 1.11 59.91 589 18.078654250083 23.430613881838 12811.128248588 280189.25894713
133	1102420 19885 238 328180 1.11 59.91 589 0 0.460851726943 108.5934274721 30.495702602816
132	1122305 19086 238 328180 1.11 59.91 589 22.777778625488 33.648104249278 17553.906433616 531154.40256055
134	1141391 10903 238 328180 1.11 59.91 589 6 6 3534 21204
146	1152294 24307 1106 328486 1.26671412624 59.966716758789 588 0.099987156099 0.10000068181 58.800002597616 5.8800005232394
145	1176601 24307 994 328380 1.24182512624 59.941827758787 588 0.09998716525 0.100000681811 58.800002597614 5.8800005232384
144	1200908 16718 1106 328486 1.26671412624 59.966716758789 588 6 6 3528 21168
143	1217626 16709 994 328380 1.24182512624 59.941827758787 588 6 6 3528 21168
142	1234335 902 5240 323156 2 59 58 0 0 0 0
141	1235237 1251 5240 323156 2 59 58 0.023625 0.02625 1.519875 0.039834703125
140	1236488 902 5240 323156 2 59 58 6 6 348 2088
161	1237390 19960 239 328181 1.11 59.91 589 -7.0974799332345 1.43642812583 -0.63542825584112 557.06346045553
160	1257350 19981 239 328181 1.11 59.91 589 -3.9587994982078 1.3133754105183 11.805886930672 342.04762470595
159	1277331 13259 239 328181 1.11 59.91 589 36.55 36.55 21527.95 786846.5725
158	1290590 19090 239 328181 1.11 59.91 589 48.497422027588 1316.5733970652 386726.57364666 333839454.96439
157	1309680 19087 239 328181 1.11 59.91 589 17.827537170177 23.400616812608 12703.400352521 275649.05483257
155	1328767 19859 239 328181 1.11 59.91 589 0 0.39722637355558 107.6086899276 26.730723544804
154	1348626 19059 239 328181 1.11 59.91 589 22.777778625488 33.549292344348 17311.258471312 516631.19148364
156	1367685 10903 239 328181 1.11 59.91 589 7 7 4123 28861
168	1378588 24245 1308 328131 1.289468930134 59.889471347794 587 0.099987229039 0.100000682215 58.700002382732 5.8700004802587
167	1402833 24286 1000 328386 1.241825215561 59.941827884043 588 0.099987165322 0.100000681883 58.800002633549 5.8800005304254
166	1427119 16664 1308 328131 1.289468930134 59.889471347794 587 7 7 4109 28763
165	1443783 16707 1000 328386 1.241825215561 59.941827884043 588 7 7 4116 28812
164	1460490 902 5241 323157 2 59 58 0 0 0 0
163	1461392 1251 5241 323157 2 59 58 0.023625 0.02625 1.519875 0.039834703125
162	1462643 902 5241 323157 2 59 58 7 7 406 2842
22	1463545 18510 233 328524 1.11 59.97 590 0 33.823788258565 14574.10471113 420843.20485572
23	1482055 19244 233 328524 1.11 59.97 590 -2.5353977212869 2.623211375651 -229.61904680444 1001.0856863446
24	1501299 10332 233 328524 1.11 59.97 590 1 1 590 590
25	1511631 18514 233 328524 1.11 59.97 590 19.599010734468 23.759790288924 13382.327218967 304220.64089313
26	1530145 18526 233 328524 1.11 59.97 590 209.16408615112 1544.1921367902 510492.59759241 530195439.08865
27	1548671 12692 233 328524 1.11 59.97 590 36.55 36.55 21564.5 788182.475
28	1561363 19757 233 328524 1.11 59.97 590 -2.5435694078514 1.7171363202639 12.476076460842 471.54022101942
29	1581120 19743 233 328524 1.11 59.97 590 -4.5983639445275 1.9602682530302 10.761903389794 693.62153176026
30	1600863 844 5235 323151 2 59 58 1 1 58 58
31	1601707 1193 5235 323151 2 59 58 0.023625 0.02625 1.519875 0.039834703125
32	1602900 844 5235 323151 2 59 58 0 0 0 0
33	1603744 16104 964 328350 1.241824679634 59.941827129479 588 1 1 588 588
34	1619848 16104 964 328350 1.241824679634 59.941827129479 588 1 1 588 588
35	1635952 23689 964 328350 1.241824679634 59.941827129479 588 0.099987164361 0.100000681594 58.800002414911 5.8800004866978
36	1659641 23689 964 328350 1.241824679634 59.941827129479 588 0.099987164361 0.100000681594 58.800002414911 5.8800004866978
