version 2
run SinusoidalJammingDetail-708-20170802-14:25:19-80690
attr CACCSpacing 20
attr attackAcc -30
attr attackPos 7
attr attackSpeed 150
attr attackStart 31.5
attr attacker 1
attr beaconInterval 0.1
attr configname SinusoidalJammingDetail
attr controller 1
attr datetime 20170802-14:25:19
attr experiment SinusoidalJammingDetail
attr fakeAcc "(1 == 4)"
attr fakePos "(1 == 2)"
attr fakeSpeed "(1 == 3)"
attr inifile omnetpp_708.ini
attr iterationvars "$leaderSpeed=120, $controller=1, $CACCSpacing=20, $sController=\"CACC\", $attacker=1, $attackStart=31.5, $attackSpeed=150, $attackPos=7, $attackAcc=-30, $0=20, $1=0, $nCars=8, $platoonSize=8, $nLanes=1, $beaconInterval=0.1, $priority=2, $packetSize=200, $ploegH=0.5, $leaderHeadway=1.2, $fakeSpeed=(1 == 3), $fakeAcc=(1 == 4), $fakePos=(1 == 2)"
attr iterationvarsf leaderSpeed=120,controller=1,CACCSpacing=20,sController=CACC,attacker=1,attackStart=31.5,attackSpeed=150,attackPos=7,attackAcc=-30,20,0,nCars=8,platoonSize=8,nLanes=1,beaconInterval=0.1,priority=2,packetSize=200,ploegH=0.5,leaderHeadway=1.2,fakeSpeed=(1_==_3),fakeAcc=(1_==_4),fakePos=(1_==_2)-
attr leaderHeadway 1.2
attr leaderSpeed 120
attr measurement "$leaderSpeed=120, $controller=1, $CACCSpacing=20, $sController=\"CACC\", $attacker=1, $attackStart=31.5, $attackSpeed=150, $attackPos=7, $attackAcc=-30, $0=20, $1=0, $nCars=8, $platoonSize=8, $nLanes=1, $beaconInterval=0.1, $priority=2, $packetSize=200, $ploegH=0.5, $leaderHeadway=1.2, $fakeSpeed=(1 == 3), $fakeAcc=(1 == 4), $fakePos=(1 == 2)"
attr nCars 8
attr nLanes 1
attr network scenario
attr packetSize 200
attr platoonSize 8
attr ploegH 0.5
attr priority 2
attr processid 80690
attr repetition 3
attr replication #3
attr resultdir results
attr runnumber 708
attr sController "\"CACC\""
attr seedset 3
param **.coreDebug false
param **.debug false
param **.headway 0.1s
param **.numberOfCars 8
param **.numberOfCarsPerPlatoon 8
param **.numberOfLanes 1
param **.numericController 1
param **.traffic.nCars 8
param **.traffic.nLanes 1
param **.traffic.platoonInsertDistance 20m
param **.traffic.platoonInsertHeadway 0s
param **.traffic.platoonInsertSpeed 120kmph
param **.traffic.platoonInsertTime "1 s"
param **.traffic.platoonLeaderHeadway 1.2s
param **.traffic.platoonSize 8
param **.traffic.platooningVType "\"vtypeauto\""
param **.traffic_type "\"PlatoonsTrafficManager\""
param *.**.nic.mac1609_4.bitrate 6Mbps
param *.**.nic.mac1609_4.txPower 100mW
param *.**.nic.mac1609_4.useServiceChannel false
param *.**.nic.phy80211p.analogueModels "xmldoc(\"config.xml\")"
param *.**.nic.phy80211p.decider "xmldoc(\"config.xml\")"
param *.**.nic.phy80211p.maxTXPower 100mW
param *.**.nic.phy80211p.sensitivity -94dBm
param *.**.nic.phy80211p.thermalNoise -95dBm
param *.**.nic.phy80211p.usePropagationDelay true
param *.**.nic.phy80211p.useThermalNoise true
param *.annotations.draw false
param *.connectionManager.alpha 2.0
param *.connectionManager.carrierFrequency "5.890e9 Hz"
param *.connectionManager.pMax 100mW
param *.connectionManager.sat -94dBm
param *.connectionManager.sendDirect true
param *.manager.autoShutdown true
param *.manager.commandLine "\"sumo --remote-port $port --seed $seed --configuration-file $configFile\""
param *.manager.configFile "\"./sumocfg/freeway.sumo.cfg\""
param *.manager.host "\"localhost\""
param *.manager.margin 25
param *.manager.moduleDisplayString "\"\""
param *.manager.moduleName "\"node\""
param *.manager.moduleType "\"Car\""
param *.manager.updateInterval 0.01s
param *.node[*].appl.attackStart 31.5s
param *.node[*].appl.attackerType 1
param *.node[*].appl.simulationDuration "60 s"
param *.node[*].appl_type "\"SimplePlatooningApp\""
param *.node[*].helper.nCars 8
param *.node[*].helper.nLanes 1
param *.node[*].helper.platoonSize 8
param *.node[*].helper_type "\"PositionHelper\""
param *.node[*].mobility.x 0
param *.node[*].mobility.y 0
param *.node[*].mobility.z 1.895
param *.node[*].prot.attackStart 31.5s
param *.node[*].prot.attackerType 1
param *.node[*].prot.attackingNode 3
param *.node[*].prot.beaconingInterval 0.1s
param *.node[*].prot.fakeAcc "(1 == 4)"
param *.node[*].prot.fakePos "(1 == 2)"
param *.node[*].prot.fakeSpeed "(1 == 3)"
param *.node[*].prot.maliciousAcc "-30 mpss"
param *.node[*].prot.maliciousSpeed 150kmph
param *.node[*].prot.packetSize 200
param *.node[*].prot.priority 2
param *.node[*].prot.shiftX "7 m"
param *.node[*].prot.useControllerAcceleration true
param *.node[*].protocol_type "\"SimplePlatooningBeaconing\""
param *.node[*].scenario.accHeadway 0.1s
param *.node[*].scenario.caccC1 0.5
param *.node[*].scenario.caccOmegaN "0.2 Hz"
param *.node[*].scenario.caccSpacing 20m
param *.node[*].scenario.caccXi 1
param *.node[*].scenario.controller "\"CACC\""
param *.node[*].scenario.engineTau "0.5 s"
param *.node[*].scenario.leaderHeadway 1.2s
param *.node[*].scenario.leaderOscillationFrequency "0.2 Hz"
param *.node[*].scenario.leaderSpeed 120kmph
param *.node[*].scenario.oscillationAmplitude "10 kmph"
param *.node[*].scenario.ploegH 0.5s
param *.node[*].scenario.ploegKd 0.7
param *.node[*].scenario.ploegKp 0.2
param *.node[*].scenario.startOscillating "5 s"
param *.node[*].scenario.useRealisticEngine false
param *.node[*].scenario_type "\"SinusoidalScenario\""
param *.node[*].unicast.packetLossRate 0
param *.obstacles.debug false
param *.playgroundSizeX 65000m
param *.playgroundSizeY 25000m
param *.playgroundSizeZ 50m
param *.world.use2D false
param *.world.useTorus false

vector 0  scenario.node[0].appl  distance  ETV
vector 1  scenario.node[0].appl  relativeSpeed  ETV
vector 2  scenario.node[0].appl  nodeId  ETV
vector 6  scenario.node[0].appl  acceleration  ETV
vector 7  scenario.node[0].appl  controllerAcceleration  ETV
vector 3  scenario.node[0].appl  speed  ETV
vector 4  scenario.node[0].appl  posx  ETV
vector 5  scenario.node[0].appl  posy  ETV
vector 22  scenario.node[1].appl  distance  ETV
vector 23  scenario.node[1].appl  relativeSpeed  ETV
vector 24  scenario.node[1].appl  nodeId  ETV
vector 28  scenario.node[1].appl  acceleration  ETV
vector 29  scenario.node[1].appl  controllerAcceleration  ETV
vector 25  scenario.node[1].appl  speed  ETV
vector 26  scenario.node[1].appl  posx  ETV
vector 27  scenario.node[1].appl  posy  ETV
vector 44  scenario.node[2].appl  distance  ETV
vector 45  scenario.node[2].appl  relativeSpeed  ETV
vector 46  scenario.node[2].appl  nodeId  ETV
vector 50  scenario.node[2].appl  acceleration  ETV
vector 51  scenario.node[2].appl  controllerAcceleration  ETV
vector 47  scenario.node[2].appl  speed  ETV
vector 48  scenario.node[2].appl  posx  ETV
vector 49  scenario.node[2].appl  posy  ETV
vector 66  scenario.node[3].appl  distance  ETV
vector 67  scenario.node[3].appl  relativeSpeed  ETV
vector 68  scenario.node[3].appl  nodeId  ETV
vector 72  scenario.node[3].appl  acceleration  ETV
vector 73  scenario.node[3].appl  controllerAcceleration  ETV
vector 69  scenario.node[3].appl  speed  ETV
vector 70  scenario.node[3].appl  posx  ETV
vector 71  scenario.node[3].appl  posy  ETV
vector 88  scenario.node[4].appl  distance  ETV
vector 89  scenario.node[4].appl  relativeSpeed  ETV
vector 90  scenario.node[4].appl  nodeId  ETV
vector 94  scenario.node[4].appl  acceleration  ETV
vector 95  scenario.node[4].appl  controllerAcceleration  ETV
vector 91  scenario.node[4].appl  speed  ETV
vector 92  scenario.node[4].appl  posx  ETV
vector 93  scenario.node[4].appl  posy  ETV
vector 110  scenario.node[5].appl  distance  ETV
vector 111  scenario.node[5].appl  relativeSpeed  ETV
vector 112  scenario.node[5].appl  nodeId  ETV
vector 116  scenario.node[5].appl  acceleration  ETV
vector 117  scenario.node[5].appl  controllerAcceleration  ETV
vector 113  scenario.node[5].appl  speed  ETV
vector 114  scenario.node[5].appl  posx  ETV
vector 115  scenario.node[5].appl  posy  ETV
vector 132  scenario.node[6].appl  distance  ETV
vector 133  scenario.node[6].appl  relativeSpeed  ETV
vector 134  scenario.node[6].appl  nodeId  ETV
vector 138  scenario.node[6].appl  acceleration  ETV
vector 139  scenario.node[6].appl  controllerAcceleration  ETV
vector 135  scenario.node[6].appl  speed  ETV
vector 136  scenario.node[6].appl  posx  ETV
vector 137  scenario.node[6].appl  posy  ETV
vector 154  scenario.node[7].appl  distance  ETV
vector 155  scenario.node[7].appl  relativeSpeed  ETV
vector 156  scenario.node[7].appl  nodeId  ETV
vector 160  scenario.node[7].appl  acceleration  ETV
vector 161  scenario.node[7].appl  controllerAcceleration  ETV
vector 157  scenario.node[7].appl  speed  ETV
vector 158  scenario.node[7].appl  posx  ETV
vector 159  scenario.node[7].appl  posy  ETV
vector 35  scenario.node[1].prot  leaderDelay  ETV
vector 33  scenario.node[1].prot  leaderDelayId  ETV
vector 36  scenario.node[1].prot  frontDelay  ETV
vector 34  scenario.node[1].prot  frontDelayId  ETV
vector 57  scenario.node[2].prot  leaderDelay  ETV
vector 55  scenario.node[2].prot  leaderDelayId  ETV
vector 79  scenario.node[3].prot  leaderDelay  ETV
vector 77  scenario.node[3].prot  leaderDelayId  ETV
vector 101  scenario.node[4].prot  leaderDelay  ETV
vector 99  scenario.node[4].prot  leaderDelayId  ETV
vector 123  scenario.node[5].prot  leaderDelay  ETV
vector 121  scenario.node[5].prot  leaderDelayId  ETV
vector 145  scenario.node[6].prot  leaderDelay  ETV
vector 143  scenario.node[6].prot  leaderDelayId  ETV
vector 167  scenario.node[7].prot  leaderDelay  ETV
vector 165  scenario.node[7].prot  leaderDelayId  ETV
vector 168  scenario.node[7].prot  frontDelay  ETV
vector 166  scenario.node[7].prot  frontDelayId  ETV
vector 58  scenario.node[2].prot  frontDelay  ETV
vector 56  scenario.node[2].prot  frontDelayId  ETV
vector 124  scenario.node[5].prot  frontDelay  ETV
vector 122  scenario.node[5].prot  frontDelayId  ETV
vector 80  scenario.node[3].prot  frontDelay  ETV
vector 78  scenario.node[3].prot  frontDelayId  ETV
vector 146  scenario.node[6].prot  frontDelay  ETV
vector 144  scenario.node[6].prot  frontDelayId  ETV
vector 102  scenario.node[4].prot  frontDelay  ETV
vector 100  scenario.node[4].prot  frontDelayId  ETV
vector 8  scenario.node[0].prot  nodeId  ETV
vector 9  scenario.node[0].prot  busyTime  ETV
vector 10  scenario.node[0].prot  collisions  ETV
vector 30  scenario.node[1].prot  nodeId  ETV
vector 31  scenario.node[1].prot  busyTime  ETV
vector 32  scenario.node[1].prot  collisions  ETV
vector 52  scenario.node[2].prot  nodeId  ETV
vector 53  scenario.node[2].prot  busyTime  ETV
vector 54  scenario.node[2].prot  collisions  ETV
vector 74  scenario.node[3].prot  nodeId  ETV
vector 75  scenario.node[3].prot  busyTime  ETV
vector 76  scenario.node[3].prot  collisions  ETV
vector 96  scenario.node[4].prot  nodeId  ETV
vector 97  scenario.node[4].prot  busyTime  ETV
vector 98  scenario.node[4].prot  collisions  ETV
vector 118  scenario.node[5].prot  nodeId  ETV
vector 119  scenario.node[5].prot  busyTime  ETV
vector 120  scenario.node[5].prot  collisions  ETV
vector 140  scenario.node[6].prot  nodeId  ETV
vector 141  scenario.node[6].prot  busyTime  ETV
vector 142  scenario.node[6].prot  collisions  ETV
vector 162  scenario.node[7].prot  nodeId  ETV
vector 163  scenario.node[7].prot  busyTime  ETV
vector 164  scenario.node[7].prot  collisions  ETV
7	232	1.11	1.264609664986e-06
7	788	1.21	1.2370558053476e-06
7	1344	1.31	1.1922643139428e-06
7	1900	1.41	1.1341353030048e-06
7	2456	1.51	1.0661075364737e-06
7	3012	1.61	9.9117950469463e-07
7	3568	1.71	9.1193474816009e-07
7	4124	1.81	8.3057002342457e-07
7	4680	1.91	7.4892560064654e-07
7	5244	2.01	6.6851609403784e-07
7	5800	2.11	5.9056183232542e-07
7	6356	2.21	5.1602003736662e-07
7	6912	2.31	4.4561458878434e-07
7	7468	2.41	3.7986517753552e-07
7	8024	2.51	3.1911461206846e-07
7	8580	2.61	2.6355444049386e-07
7	9136	2.71	2.1324864718508e-07
7	9692	2.81	1.6815555881067e-07
7	10248	2.91	1.2814749794643e-07
7	10812	3.01	9.3028553749264e-08
7	11368	3.11	6.255026363533e-08
7	11924	3.21	3.6425589655664e-08
7	12480	3.31	1.4340962195547e-08
7	13036	3.41	-4.0332679418498e-09
7	13592	3.51	-1.9034231968362e-08
7	14148	3.61	-3.0998883460143e-08
7	14704	3.71	-4.0258086642098e-08
7	15260	3.81	-4.7131671010447e-08
7	15816	3.91	-5.1925063360159e-08
7	16380	4.01	-5.4926061920924e-08
7	16936	4.11	-5.6402775783226e-08
7	17492	4.21	-5.6602530662531e-08
7	18048	4.31	-5.5751151251116e-08
7	18604	4.41	-5.4052726738973e-08
7	19160	4.51	-5.1689909241759e-08
7	19716	4.61	-4.8824482234977e-08
7	20272	4.71	-4.5598198994412e-08
7	20828	4.81	-4.2133798672239e-08
7	21384	4.91	-3.8536192903393e-08
7	21949	5.01	-3.4893794520485e-08
7	22506	5.11	0.34814783973202
7	23063	5.21	0.68726932535991
7	23620	5.31	1.0064705905053
7	24177	5.41	1.2963311346507
7	24734	5.51	1.5
7	25291	5.61	1.5
7	25848	5.71	1.5
7	26405	5.81	1.5
7	26962	5.91	1.5
7	27527	6.01	1.5
7	28084	6.11	1.5
7	28641	6.21	1.5
7	29198	6.31	1.5
7	29755	6.41	1.5
7	30312	6.51	1.4919234058593
7	30869	6.61	1.2264993209595
7	31426	6.71	0.92305383326438
7	31983	6.81	0.5890810138258
7	32540	6.91	0.23235621116515
7	33105	7.01	-0.13919560237429
7	33662	7.11	-0.51762846938546
7	34219	7.21	-0.89509994250727
7	34776	7.31	-1.2639902910536
7	35333	7.41	-1.5
7	35890	7.51	-1.5
7	36447	7.61	-1.5
7	37004	7.71	-1.5
7	37561	7.81	-1.5
7	38118	7.91	-1.5
7	38683	8.01	-1.5
7	39240	8.11	-1.5
7	39797	8.21	-1.5
7	40354	8.31	-1.5
7	40911	8.41	-1.5
7	41468	8.51	-1.5
7	42025	8.61	-1.5
7	42582	8.71	-1.5
7	43139	8.81	-1.5
7	43696	8.91	-1.5
7	44261	9.01	-1.5
7	44818	9.11	-1.5
7	45375	9.21	-1.5
7	45932	9.31	-1.5
7	46489	9.41	-1.5
7	47046	9.51	-1.178453590773
7	47603	9.61	-0.73985166452546
7	48160	9.71	-0.29046662090423
7	48717	9.81	0.15868205640434
7	49274	9.91	0.59737147663756
7	49839	10.01	1.0162504339375
7	50396	10.11	1.4069035496629
7	50953	10.21	1.5
7	51510	10.31	1.5
7	52067	10.41	1.5
7	52624	10.51	1.5
7	53181	10.61	1.5
7	53738	10.71	1.5
7	54295	10.81	1.5
7	54852	10.91	1.5
7	55417	11.01	1.5
7	55974	11.11	1.5
7	56531	11.21	1.5
7	57088	11.31	1.5
7	57645	11.41	1.5
7	58202	11.51	1.5
7	58759	11.61	1.5
7	59316	11.71	1.5
7	59873	11.81	1.5
7	60430	11.91	1.1420569522446
7	60995	12.01	0.73271074165216
7	61552	12.11	0.30763491694659
7	62109	12.21	-0.12290183408495
7	62666	12.31	-0.5491742287245
7	63223	12.41	-0.96209331723149
7	63780	12.51	-1.3532900275905
7	64337	12.61	-1.5
7	64894	12.71	-1.5
7	65451	12.81	-1.5
7	66008	12.91	-1.5
7	66573	13.01	-1.5
7	67130	13.11	-1.5
7	67687	13.21	-1.5
7	68244	13.31	-1.5
7	68801	13.41	-1.5
7	69358	13.51	-1.5
7	69915	13.61	-1.5
7	70472	13.71	-1.5
7	71029	13.81	-1.5
7	71586	13.91	-1.5
7	72151	14.01	-1.5
7	72708	14.11	-1.5
7	73265	14.21	-1.5
7	73822	14.31	-1.5
7	74379	14.41	-1.300830579343
7	74936	14.51	-0.88835736023715
7	75493	14.61	-0.45792464377335
7	76050	14.71	-0.020297800504288
7	76607	14.81	0.41435934755211
7	77164	14.91	0.83657487482698
7	77729	15.01	1.2376491838765
7	78286	15.11	1.5
7	78843	15.21	1.5
7	79400	15.31	1.5
7	79957	15.41	1.5
7	80514	15.51	1.5
7	81071	15.61	1.5
7	81628	15.71	1.5
7	82185	15.81	1.5
7	82742	15.91	1.5
7	83307	16.01	1.5
7	83864	16.11	1.5
7	84421	16.21	1.5
7	84978	16.31	1.5
7	85535	16.41	1.5
7	86092	16.51	1.5
7	86649	16.61	1.5
7	87206	16.71	1.5
7	87763	16.81	1.5
7	88320	16.91	1.2451238477297
7	88885	17.01	0.83347870134542
7	89442	17.11	0.40470958876118
7	89999	17.21	-0.030598062226161
7	90556	17.31	-0.46243980387321
7	91113	17.41	-0.88148335305221
7	91670	17.51	-1.2791500631775
7	92227	17.61	-1.5
7	92784	17.71	-1.5
7	93341	17.81	-1.5
7	93898	17.91	-1.5
7	94463	18.01	-1.5
7	95020	18.11	-1.5
7	95577	18.21	-1.5
7	96134	18.31	-1.5
7	96691	18.41	-1.5
7	97248	18.51	-1.5
7	97805	18.61	-1.5
7	98362	18.71	-1.5
7	98919	18.81	-1.5
7	99476	18.91	-1.5
7	100041	19.01	-1.5
7	100598	19.11	-1.5
7	101155	19.21	-1.5
7	101712	19.31	-1.5
7	102269	19.41	-1.2657245815155
7	102826	19.51	-0.85377693481785
7	103383	19.61	-0.42439560038367
7	103940	19.71	0.011767371265513
7	104497	19.81	0.44464851836144
7	105054	19.91	0.86486384400278
7	105619	20.01	1.2637899041103
7	106176	20.11	1.5
7	106733	20.21	1.5
7	107290	20.31	1.5
7	107847	20.41	1.5
7	108404	20.51	1.5
7	108961	20.61	1.5
7	109518	20.71	1.5
7	110075	20.81	1.5
7	110632	20.91	1.5
7	111197	21.01	1.5
7	111754	21.11	1.5
7	112311	21.21	1.5
7	112868	21.31	1.5
7	113425	21.41	1.5
7	113982	21.51	1.5
7	114539	21.61	1.5
7	115096	21.71	1.5
7	115653	21.81	1.5
7	116210	21.91	1.2580915517739
7	116775	22.01	0.84625491634584
7	117332	22.11	0.41709956367264
7	117889	22.21	-0.018747163545136
7	118446	22.31	-0.45124369149665
7	119003	22.41	-0.87102520538844
7	119560	22.51	-1.269484879462
7	120117	22.61	-1.5
7	120674	22.71	-1.5
7	121231	22.81	-1.5
7	121788	22.91	-1.5
7	122353	23.01	-1.5
7	122910	23.11	-1.5
7	123467	23.21	-1.5
7	124024	23.31	-1.5
7	124581	23.41	-1.5
7	125138	23.51	-1.5
7	125695	23.61	-1.5
7	126252	23.71	-1.5
7	126809	23.81	-1.5
7	127366	23.91	-1.5
7	127931	24.01	-1.5
7	128488	24.11	-1.5
7	129045	24.21	-1.5
7	129602	24.31	-1.5
7	130159	24.41	-1.260923965114
7	130716	24.51	-0.84904615684758
7	131273	24.61	-0.41980696481334
7	131830	24.71	0.016157099443966
7	132387	24.81	0.44879633965816
7	132944	24.91	0.86873882266688
7	133509	25.01	1.2673715557178
7	134066	25.11	1.5
7	134623	25.21	1.5
7	135180	25.31	1.5
7	135737	25.41	1.5
7	136294	25.51	1.5
7	136851	25.61	1.5
7	137408	25.71	1.5
7	137965	25.81	1.5
7	138522	25.91	1.5
7	139087	26.01	1.5
7	139644	26.11	1.5
7	140201	26.21	1.5
7	140758	26.31	1.5
7	141315	26.41	1.5
7	141872	26.51	1.5
7	142429	26.61	1.5
7	142986	26.71	1.5
7	143543	26.81	1.5
7	144100	26.91	1.2598728518647
7	144665	27.01	0.8480103225158
7	145222	27.11	0.41880224309308
7	145779	27.21	-0.017118277440183
7	146336	27.31	-0.44970455708226
7	146893	27.41	-0.86958730431697
7	147450	27.51	-1.2681558149808
7	148007	27.61	-1.5
7	148564	27.71	-1.5
7	149121	27.81	-1.5
7	149678	27.91	-1.5
7	150243	28.01	-1.5
7	150800	28.11	-1.5
7	151357	28.21	-1.5
7	151914	28.31	-1.5
7	152471	28.41	-1.5
7	153028	28.51	-1.5
7	153585	28.61	-1.5
7	154142	28.71	-1.5
7	154699	28.81	-1.5
7	155256	28.91	-1.5
7	155821	29.01	-1.5
7	156378	29.11	-1.5
7	156935	29.21	-1.5
7	157492	29.31	-1.5
7	158049	29.41	-1.2602629232501
7	158606	29.51	-0.84839472385493
7	159163	29.61	-0.41917509845157
7	159720	29.71	0.016761581288016
7	160277	29.81	0.44936751475895
7	160834	29.91	0.86927243012207
7	161399	30.01	1.2678647739113
7	161956	30.11	1.5
7	162513	30.21	1.5
7	163070	30.31	1.5
7	163627	30.41	1.5
7	164184	30.51	1.5
7	164741	30.61	1.5
7	165298	30.71	1.5
7	165855	30.81	1.5
7	166412	30.91	1.5
7	166977	31.01	1.5
7	167534	31.11	1.5
7	168091	31.21	1.5
7	168648	31.31	1.5
7	169205	31.41	1.5
7	169762	31.51	1.5
7	170319	31.61	1.5
7	170876	31.71	1.5
7	171433	31.81	1.5
7	171990	31.91	1.2601181665228
7	172555	32.01	0.84825207129951
7	173112	32.11	0.41903673064589
7	173669	32.21	-0.016893952361208
7	174226	32.31	-0.44949259223428
7	174783	32.41	-0.8693892809349
7	175340	32.51	-1.2679727801759
7	175897	32.61	-1.5
7	176454	32.71	-1.5
7	177011	32.81	-1.5
7	177568	32.91	-1.5
7	178133	33.01	-1.5
7	178690	33.11	-1.5
7	179247	33.21	-1.5
7	179804	33.31	-1.5
7	180361	33.41	-1.5
7	180918	33.51	-1.5
7	181475	33.61	-1.5
7	182032	33.71	-1.5
7	182589	33.81	-1.5
7	183146	33.91	-1.5
7	183711	34.01	-1.5
7	184268	34.11	-1.5
7	184825	34.21	-1.5
7	185382	34.31	-1.5
7	185939	34.41	-1.2601718862023
7	186496	34.51	-0.84830501011423
7	187053	34.61	-0.4190880793765
7	187610	34.71	0.016844829036998
7	188167	34.81	0.44944617558727
7	188724	34.91	0.86934591722826
7	189289	35.01	1.2679326987089
7	189846	35.11	1.5
7	190403	35.21	1.5
7	190960	35.31	1.5
7	191517	35.41	1.5
7	192074	35.51	1.5
7	192631	35.61	1.5
7	193188	35.71	1.5
7	193745	35.81	1.5
7	194302	35.91	1.5
7	194867	36.01	1.5
7	195424	36.11	1.5
7	195981	36.21	1.5
7	196538	36.31	1.5
7	197095	36.41	1.5
7	197652	36.51	1.5
7	198209	36.61	1.5
7	198766	36.71	1.5
7	199323	36.81	1.5
7	199880	36.91	1.2601519506582
7	200445	37.01	0.8482853643515
7	201002	37.11	0.41906902369898
7	201559	37.21	-0.016863058859116
7	202116	37.31	-0.4494634009528
7	202673	37.41	-0.86936200963788
7	203230	37.51	-1.2679475730689
7	203787	37.61	-1.5
7	204344	37.71	-1.5
7	204901	37.81	-1.5
7	205458	37.91	-1.5
7	206023	38.01	-1.5
7	206580	38.11	-1.5
7	207137	38.21	-1.5
7	207694	38.31	-1.5
7	208251	38.41	-1.5
7	208808	38.51	-1.5
7	209365	38.61	-1.5
7	209922	38.71	-1.5
7	210479	38.81	-1.5
7	211036	38.91	-1.5
7	211601	39.01	-1.5
7	212158	39.11	-1.5
7	212715	39.21	-1.5
7	213272	39.31	-1.5
7	213829	39.41	-1.2601593487987
7	214386	39.51	-0.84829265495303
7	214943	39.61	-0.41907609531791
7	215500	39.71	0.016856293717851
7	216057	39.81	0.44945700856871
7	216614	39.91	0.86935603769744
7	217179	40.01	1.2679420531505
6	232	1.11	1.8587371641843e-07
6	788	1.21	3.7715039979958e-07
6	1344	1.31	5.2730015909219e-07
6	1900	1.41	6.4101826069418e-07
6	2456	1.51	7.2280812446479e-07
6	3012	1.61	7.7694011224594e-07
6	3568	1.71	8.0741315855448e-07
6	4124	1.81	8.1792990158647e-07
6	4680	1.91	8.1188602507609e-07
6	5244	2.01	7.9236670558203e-07
6	5800	2.11	7.6214163868826e-07
6	6356	2.21	7.2367640768789e-07
6	6912	2.31	6.7914172063865e-07
6	7468	2.41	6.3042691067494e-07
6	8024	2.51	5.791562784907e-07
6	8580	2.61	5.2670969807878e-07
6	9136	2.71	4.7423895921384e-07
6	9692	2.81	4.226883731917e-07
6	10248	2.91	3.7281679965417e-07
6	10812	3.01	3.2521825232834e-07
6	11368	3.11	2.8033753096679e-07
6	11924	3.21	2.3849224817241e-07
6	12480	3.31	1.9988561916762e-07
6	13036	3.41	1.6463133079014e-07
6	13592	3.51	1.3275709420668e-07
6	14148	3.61	1.0422880336591e-07
6	14704	3.71	7.8954798254927e-08
6	15260	3.81	5.6805049553077e-08
6	15816	3.91	3.7617553516611e-08
6	16380	4.01	2.1201884692346e-08
6	16936	4.11	7.354117315117e-09
6	17492	4.21	-4.1374903503311e-09
6	18048	4.31	-1.3491074923877e-08
6	18604	4.41	-2.0921930854456e-08
6	19160	4.51	-2.6641799877325e-08
6	19716	4.61	-3.0856028843118e-08
6	20272	4.71	-3.3759306461434e-08
6	20828	4.81	-3.5534952758098e-08
6	21384	4.91	-3.6354919075166e-08
6	21949	5.01	-3.6375524814503e-08
6	22506	5.11	0.0068263931019885
6	23063	5.21	0.074594779098902
6	23620	5.31	0.19005129180201
6	24177	5.41	0.34050267454901
6	24734	5.51	0.51301634170429
6	25291	5.61	0.6902545459468
6	25848	5.71	0.83572669343468
6	26405	5.81	0.95506452230651
6	26962	5.91	1.0529631073332
6	27527	6.01	1.1332740451195
6	28084	6.11	1.1991569863937
6	28641	6.21	1.2532039452594
6	29198	6.31	1.2975412760781
6	29755	6.41	1.3339133300356
6	30312	6.51	1.3635927180715
6	30869	6.61	1.3702053544215
6	31426	6.71	1.3272611853779
6	31983	6.81	1.2373810849141
6	32540	6.91	1.1040433684336
6	33105	7.01	0.93147091325463
6	33662	7.11	0.72451589912248
6	34219	7.21	0.48854317732108
6	34776	7.31	0.22931329054146
6	35333	7.41	-0.044839403605579
6	35890	7.51	-0.30626147870336
6	36447	7.61	-0.52071863355891
6	37004	7.71	-0.69664819594024
6	37561	7.81	-0.84097171333752
6	38118	7.91	-0.95936726546597
6	38683	8.01	-1.0564928553684
6	39240	8.11	-1.1361696679188
6	39797	8.21	-1.2015324056335
6	40354	8.31	-1.2551526163939
6	40911	8.41	-1.2991398651295
6	41468	8.51	-1.3352247298471
6	42025	8.61	-1.3648268872679
6	42582	8.71	-1.3891109667817
6	43139	8.81	-1.4090323701247
6	43696	8.91	-1.4253748594882
6	44261	9.01	-1.4387813928529
6	44818	9.11	-1.4497794197055
6	45375	9.21	-1.4588016323373
6	45932	9.31	-1.4662029891298
6	46489	9.41	-1.4722746795918
6	47046	9.51	-1.4696249147882
6	47603	9.61	-1.3967850640618
6	48160	9.71	-1.2587757643061
6	48717	9.81	-1.066095221988
6	49274	9.91	-0.82923335039382
6	49839	10.01	-0.55852907855325
6	50396	10.11	-0.26404116091285
6	50953	10.21	0.03943269852158
6	51510	10.31	0.30182609737963
6	52067	10.41	0.5170800760304
6	52624	10.51	0.69366331145844
6	53181	10.61	0.83852306842829
6	53738	10.71	0.95735852377814
6	54295	10.81	1.0548449875394
6	54852	10.91	1.1348178423468
6	55417	11.01	1.2004234378246
6	55974	11.11	1.2542428765379
6	56531	11.21	1.2983935615857
6	57088	11.31	1.3346125010031
6	57645	11.41	1.3643246463779
6	58202	11.51	1.3886989543209
6	58759	11.61	1.4086943764035
6	59316	11.71	1.4250975869132
6	59873	11.81	1.438553932767
6	60430	11.91	1.4345627372599
6	60995	12.01	1.3623449188415
6	61552	12.11	1.2299875654037
6	62109	12.21	1.0461448397272
6	62666	12.31	0.81967864243424
6	63223	12.41	0.55952045898948
6	63780	12.51	0.27454262943465
6	64337	12.61	-0.022341644934443
6	64894	12.71	-0.28780548062457
6	65451	12.81	-0.50557828691211
6	66008	12.91	-0.68422783830826
6	66573	13.01	-0.83078269407011
6	67130	13.11	-0.95100872083407
6	67687	13.21	-1.0496359374898
6	68244	13.31	-1.1305446069947
6	68801	13.41	-1.1969178964684
6	69358	13.51	-1.2513671116459
6	69915	13.61	-1.2960344327446
6	70472	13.71	-1.332677193669
6	71029	13.81	-1.3627370202968
6	71586	13.91	-1.3873965479647
6	72151	14.01	-1.4076259495631
6	72708	14.11	-1.4242211047723
6	73265	14.21	-1.4378349121337
6	73822	14.31	-1.4490029758569
6	74379	14.41	-1.4542593951873
6	74936	14.51	-1.4067454390094
6	75493	14.61	-1.2938574955413
6	76050	14.71	-1.1248409052385
6	76607	14.81	-0.90912582144114
6	77164	14.91	-0.65618298377643
6	77729	15.01	-0.37539052555147
6	78286	15.11	-0.078063005102535
6	78843	15.21	0.20543869666909
6	79400	15.31	0.438008835728
6	79957	15.41	0.62879735390737
6	80514	15.51	0.78531039043099
6	81071	15.61	0.9137055938524
6	81628	15.71	1.0190343806897
6	82185	15.81	1.1054406719012
6	82742	15.91	1.1763239259942
6	83307	16.01	1.2344728829795
6	83864	16.11	1.2821752809813
6	84421	16.21	1.3213078620829
6	84978	16.31	1.3534102084591
6	85535	16.41	1.3797453137308
6	86092	16.51	1.4013492725667
6	86649	16.61	1.4190720434684
6	87206	16.71	1.4336108884464
6	87763	16.81	1.4455378052055
6	88320	16.91	1.450294906531
6	88885	17.01	1.3935559567486
6	89442	17.11	1.273336870139
6	89999	17.21	1.0986742440473
6	90556	17.31	0.87879676590887
6	91113	17.41	0.62298329275308
6	91670	17.51	0.34043137852748
6	92227	17.61	0.043031849074282
6	92784	17.71	-0.23417644595867
6	93341	17.81	-0.46158379950043
6	93898	17.91	-0.64813703535762
6	94463	18.01	-0.80117566522802
6	95020	18.11	-0.92672064505877
6	95577	18.21	-1.0297112558206
6	96134	18.31	-1.1141994282617
6	96691	18.41	-1.1835091568834
6	97248	18.51	-1.240367274923
6	97805	18.61	-1.2870107353912
6	98362	18.71	-1.3252746188869
6	98919	18.81	-1.3566643306589
6	99476	18.91	-1.3824148273436
6	100041	19.01	-1.4035392035204
6	100598	19.11	-1.420868549603
6	101155	19.21	-1.4350846492
6	101712	19.31	-1.4467468023348
6	102269	19.41	-1.4517201941764
6	102826	19.51	-1.3984004323888
6	103383	19.61	-1.2808993810097
6	103940	19.71	-1.1083308503785
6	104497	19.81	-0.88999806036867
6	105054	19.91	-0.63525086466854
6	105619	20.01	-0.35335363991464
6	106176	20.11	-0.055983891308387
6	106733	20.21	0.22355126013309
6	107290	20.31	0.45286744637281
6	107847	20.41	0.64098658988812
6	108404	20.51	0.79530980944469
6	108961	20.61	0.92190860023891
6	109518	20.71	1.0257637030342
6	110075	20.81	1.1109610600442
6	110632	20.91	1.1808525670212
6	111197	21.01	1.2381879459461
6	111754	21.11	1.2852229265711
6	112311	21.21	1.3238079929607
6	112868	21.31	1.3554611865736
6	113425	21.41	1.3814278301389
6	113982	21.51	1.4027295220423
6	114539	21.61	1.4202043287803
6	115096	21.71	1.4345397567773
6	115653	21.81	1.4462998007623
6	116210	21.91	1.4512038299465
6	116775	22.01	1.3966149622043
6	117332	22.11	1.2781048258539
6	117889	22.21	1.104758616826
6	118446	22.31	0.88585193074024
6	119003	22.41	0.63070830476093
6	119560	22.51	0.34856734380924
6	120117	22.61	0.051185654368879
6	120674	22.71	-0.22748748564823
6	121231	22.81	-0.45609652228151
6	121788	22.91	-0.64363555681979
6	122353	23.01	-0.79748288496191
6	122910	23.11	-0.92369127904561
6	123467	23.21	-1.0272261205614
6	124024	23.31	-1.1121607517779
6	124581	23.41	-1.1818367320963
6	125138	23.51	-1.2389953040923
6	125695	23.61	-1.2858852414531
6	126252	23.71	-1.324351321847
6	126809	23.81	-1.355906905502
6	127366	23.91	-1.3817934749042
6	127931	24.01	-1.403029478103
6	128488	24.11	-1.4204503972238
6	129045	24.21	-1.4347416186069
6	129602	24.31	-1.4464653977718
6	130159	24.41	-1.4513952146871
6	130716	24.51	-1.397277320676
6	131273	24.61	-1.2791416668563
6	131830	24.71	-1.1060840673039
6	132387	24.81	-0.88739036841758
6	132944	24.91	-0.63239387292811
6	133509	25.01	-0.35034337811126
6	134066	25.11	-0.052966136912147
6	134623	25.21	0.22602686982154
6	135180	25.31	0.45489830857193
6	135737	25.41	0.64265260423966
6	136294	25.51	0.7966765214853
6	136851	25.61	0.92302978013734
6	137408	25.71	1.0266834610576
6	137965	25.81	1.1117155819754
6	138522	25.91	1.1814715378058
6	139087	26.01	1.2386957175771
6	139644	26.11	1.2856394761641
6	140201	26.21	1.3241497087101
6	140758	26.31	1.3557415125085
6	141315	26.41	1.3816577950429
6	141872	26.51	1.4029181733591
6	142429	26.61	1.4203590885664
6	142986	26.71	1.4346667137048
6	143543	26.81	1.4464039496623
6	144100	26.91	1.4513241957715
6	144665	27.01	1.3970315218245
6	145222	27.11	1.2787568961947
6	145779	27.21	1.1055921925461
6	146336	27.31	0.8868194531928
6	146893	27.41	0.63176835684402
6	147450	27.51	0.34968428947408
6	148007	27.61	0.052305397196051
6	148564	27.71	-0.22656890652399
6	149121	27.81	-0.45534296745871
6	149678	27.91	-0.64301737940156
6	150243	28.01	-0.79697576417033
6	150800	28.11	-0.92327526336575
6	151357	28.21	-1.0268848428062
6	151914	28.31	-1.1118807851517
6	152471	28.41	-1.1816070619503
6	153028	28.51	-1.2388068945782
6	153585	28.61	-1.2857306800278
6	154142	28.71	-1.3242245276466
6	154699	28.81	-1.3558028900952
6	155256	28.91	-1.3817081460417
6	155821	29.01	-1.4029594787168
6	156378	29.11	-1.4203929733462
6	156935	29.21	-1.4346945110262
6	157492	29.31	-1.446426753148
6	158049	29.41	-1.4513505510308
6	158606	29.51	-1.3971227384744
6	159163	29.61	-1.2788996857282
6	159720	29.71	-1.1057747287524
6	160277	29.81	-0.88703132157306
6	160834	29.91	-0.63200048778285
6	161399	30.01	-0.34992887930017
6	161956	30.11	-0.052550599748002
6	162513	30.21	0.22636775502534
6	163070	30.31	0.45517795316812
6	163627	30.41	0.64288201020943
6	164184	30.51	0.79686471428317
6	164741	30.61	0.92318416377992
6	165298	30.71	1.0268101094155
6	165855	30.81	1.1118194777403
6	166412	30.91	1.181556768519
6	166977	31.01	1.2387656364474
6	167534	31.11	1.2856968339904
6	168091	31.21	1.3241967621056
6	168648	31.31	1.3557801126808
6	169205	31.41	1.3816894606293
6	169762	31.51	1.4029441501705
6	170319	31.61	1.4203803985993
6	170876	31.71	1.434684195354
6	171433	31.81	1.4464182907048
6	171990	31.91	1.4513407705138
6	172555	32.01	1.3970888876891
6	173112	32.11	1.2788466960821
6	173669	32.21	1.1057069889901
6	174226	32.31	0.88695269654835
6	174783	32.41	0.63191434325702
6	175340	32.51	0.3498381112415
6	175897	32.61	0.052459604304289
6	176454	32.71	-0.22644240298533
6	177011	32.81	-0.45523919049515
6	177568	32.91	-0.64293224614715
6	178133	33.01	-0.79690592524955
6	178690	33.11	-0.92321797112547
6	179247	33.21	-1.0268378432137
6	179804	33.31	-1.1118422291148
6	180361	33.41	-1.1815754325717
6	180918	33.51	-1.2387809474724
6	181475	33.61	-1.2857093943644
6	182032	33.71	-1.3242070659885
6	182589	33.81	-1.3557885654535
6	183146	33.91	-1.3816963948479
6	183711	34.01	-1.4029498386442
6	184268	34.11	-1.4203850651299
6	184825	34.21	-1.4346880235344
6	185382	34.31	-1.4464214311445
6	185939	34.41	-1.4513444000933
6	186496	34.51	-1.3971014498217
6	187053	34.61	-1.2788663607076
6	187610	34.71	-1.1057321274301
6	188167	34.81	-0.88698187454312
6	188724	34.91	-0.63194631176131
6	189289	35.01	-0.34987179555372
6	189846	35.11	-0.052493373000573
6	190403	35.21	0.22641470089155
6	190960	35.31	0.45521646513009
6	191517	35.41	0.64291360343205
6	192074	35.51	0.79689063173021
6	192631	35.61	0.92320542511359
6	193188	35.71	1.0268275511145
6	193745	35.81	1.1118337860083
6	194302	35.91	1.1815685062835
6	194867	36.01	1.2387752655023
6	195424	36.11	1.2857047331693
6	195981	36.21	1.3242032421843
6	196538	36.31	1.3557854286027
6	197095	36.41	1.3816938215371
6	197652	36.51	1.4029477276331
6	198209	36.61	1.4203833333653
6	198766	36.71	1.4346866028845
6	199323	36.81	1.4464202657166
6	199880	36.91	1.4513430531451
6	200445	37.01	1.397096787975
6	201002	37.11	1.2788590631018
6	201559	37.21	1.105722798475
6	202116	37.31	0.88697104649569
6	202673	37.41	0.63193444814758
6	203230	37.51	0.34985929519777
6	203787	37.61	0.052480841328872
6	204344	37.71	-0.22642498122849
6	204901	37.81	-0.4552248985874
6	205458	37.91	-0.64292052180548
6	206023	38.01	-0.79689630720523
6	206580	38.11	-0.92321008097898
6	207137	38.21	-1.0268313705467
6	207694	38.31	-1.1118369192744
6	208251	38.41	-1.1815710766527
6	208808	38.51	-1.2387773741011
6	209365	38.61	-1.2857064629564
6	209922	38.71	-1.3242046612127
6	210479	38.81	-1.3557865927005
6	211036	38.91	-1.3816947765022
6	211601	39.01	-1.4029485110377
6	212158	39.11	-1.4203839760292
6	212715	39.21	-1.4346871300937
6	213272	39.31	-1.4464206982126
6	213829	39.41	-1.4513435530041
6	214386	39.51	-1.3970985180023
6	214943	39.61	-1.278861771268
6	215500	39.71	-1.1057262604808
6	216057	39.81	-0.88697506482021
6	216614	39.91	-0.63193885077268
6	217179	40.01	-0.34986393411884
5	232	1.11	36.55
5	788	1.21	36.55
5	1344	1.31	36.55
5	1900	1.41	36.55
5	2456	1.51	36.55
5	3012	1.61	36.55
5	3568	1.71	36.55
5	4124	1.81	36.55
5	4680	1.91	36.55
5	5244	2.01	36.55
5	5800	2.11	36.55
5	6356	2.21	36.55
5	6912	2.31	36.55
5	7468	2.41	36.55
5	8024	2.51	36.55
5	8580	2.61	36.55
5	9136	2.71	36.55
5	9692	2.81	36.55
5	10248	2.91	36.55
5	10812	3.01	36.55
5	11368	3.11	36.55
5	11924	3.21	36.55
5	12480	3.31	36.55
5	13036	3.41	36.55
5	13592	3.51	36.55
5	14148	3.61	36.55
5	14704	3.71	36.55
5	15260	3.81	36.55
5	15816	3.91	36.55
5	16380	4.01	36.55
5	16936	4.11	36.55
5	17492	4.21	36.55
5	18048	4.31	36.55
5	18604	4.41	36.55
5	19160	4.51	36.55
5	19716	4.61	36.55
5	20272	4.71	36.55
5	20828	4.81	36.55
5	21384	4.91	36.55
5	21949	5.01	36.55
5	22506	5.11	36.55
5	23063	5.21	36.55
5	23620	5.31	36.55
5	24177	5.41	36.55
5	24734	5.51	36.55
5	25291	5.61	36.55
5	25848	5.71	36.55
5	26405	5.81	36.55
5	26962	5.91	36.55
5	27527	6.01	36.55
5	28084	6.11	36.55
5	28641	6.21	36.55
5	29198	6.31	36.55
5	29755	6.41	36.55
5	30312	6.51	36.55
5	30869	6.61	36.55
5	31426	6.71	36.55
5	31983	6.81	36.55
5	32540	6.91	36.55
5	33105	7.01	36.55
5	33662	7.11	36.55
5	34219	7.21	36.55
5	34776	7.31	36.55
5	35333	7.41	36.55
5	35890	7.51	36.55
5	36447	7.61	36.55
5	37004	7.71	36.55
5	37561	7.81	36.55
5	38118	7.91	36.55
5	38683	8.01	36.55
5	39240	8.11	36.55
5	39797	8.21	36.55
5	40354	8.31	36.55
5	40911	8.41	36.55
5	41468	8.51	36.55
5	42025	8.61	36.55
5	42582	8.71	36.55
5	43139	8.81	36.55
5	43696	8.91	36.55
5	44261	9.01	36.55
5	44818	9.11	36.55
5	45375	9.21	36.55
5	45932	9.31	36.55
5	46489	9.41	36.55
5	47046	9.51	36.55
5	47603	9.61	36.55
5	48160	9.71	36.55
5	48717	9.81	36.55
5	49274	9.91	36.55
5	49839	10.01	36.55
5	50396	10.11	36.55
5	50953	10.21	36.55
5	51510	10.31	36.55
5	52067	10.41	36.55
5	52624	10.51	36.55
5	53181	10.61	36.55
5	53738	10.71	36.55
5	54295	10.81	36.55
5	54852	10.91	36.55
5	55417	11.01	36.55
5	55974	11.11	36.55
5	56531	11.21	36.55
5	57088	11.31	36.55
5	57645	11.41	36.55
5	58202	11.51	36.55
5	58759	11.61	36.55
5	59316	11.71	36.55
5	59873	11.81	36.55
5	60430	11.91	36.55
5	60995	12.01	36.55
5	61552	12.11	36.55
5	62109	12.21	36.55
5	62666	12.31	36.55
5	63223	12.41	36.55
5	63780	12.51	36.55
5	64337	12.61	36.55
5	64894	12.71	36.55
5	65451	12.81	36.55
5	66008	12.91	36.55
5	66573	13.01	36.55
5	67130	13.11	36.55
5	67687	13.21	36.55
5	68244	13.31	36.55
5	68801	13.41	36.55
5	69358	13.51	36.55
5	69915	13.61	36.55
5	70472	13.71	36.55
5	71029	13.81	36.55
5	71586	13.91	36.55
5	72151	14.01	36.55
5	72708	14.11	36.55
5	73265	14.21	36.55
5	73822	14.31	36.55
5	74379	14.41	36.55
5	74936	14.51	36.55
5	75493	14.61	36.55
5	76050	14.71	36.55
5	76607	14.81	36.55
5	77164	14.91	36.55
5	77729	15.01	36.55
5	78286	15.11	36.55
5	78843	15.21	36.55
5	79400	15.31	36.55
5	79957	15.41	36.55
5	80514	15.51	36.55
5	81071	15.61	36.55
5	81628	15.71	36.55
5	82185	15.81	36.55
5	82742	15.91	36.55
5	83307	16.01	36.55
5	83864	16.11	36.55
5	84421	16.21	36.55
5	84978	16.31	36.55
5	85535	16.41	36.55
5	86092	16.51	36.55
5	86649	16.61	36.55
5	87206	16.71	36.55
5	87763	16.81	36.55
5	88320	16.91	36.55
5	88885	17.01	36.55
5	89442	17.11	36.55
5	89999	17.21	36.55
5	90556	17.31	36.55
5	91113	17.41	36.55
5	91670	17.51	36.55
5	92227	17.61	36.55
5	92784	17.71	36.55
5	93341	17.81	36.55
5	93898	17.91	36.55
5	94463	18.01	36.55
5	95020	18.11	36.55
5	95577	18.21	36.55
5	96134	18.31	36.55
5	96691	18.41	36.55
5	97248	18.51	36.55
5	97805	18.61	36.55
5	98362	18.71	36.55
5	98919	18.81	36.55
5	99476	18.91	36.55
5	100041	19.01	36.55
5	100598	19.11	36.55
5	101155	19.21	36.55
5	101712	19.31	36.55
5	102269	19.41	36.55
5	102826	19.51	36.55
5	103383	19.61	36.55
5	103940	19.71	36.55
5	104497	19.81	36.55
5	105054	19.91	36.55
5	105619	20.01	36.55
5	106176	20.11	36.55
5	106733	20.21	36.55
5	107290	20.31	36.55
5	107847	20.41	36.55
5	108404	20.51	36.55
5	108961	20.61	36.55
5	109518	20.71	36.55
5	110075	20.81	36.55
5	110632	20.91	36.55
5	111197	21.01	36.55
5	111754	21.11	36.55
5	112311	21.21	36.55
5	112868	21.31	36.55
5	113425	21.41	36.55
5	113982	21.51	36.55
5	114539	21.61	36.55
5	115096	21.71	36.55
5	115653	21.81	36.55
5	116210	21.91	36.55
5	116775	22.01	36.55
5	117332	22.11	36.55
5	117889	22.21	36.55
5	118446	22.31	36.55
5	119003	22.41	36.55
5	119560	22.51	36.55
5	120117	22.61	36.55
5	120674	22.71	36.55
5	121231	22.81	36.55
5	121788	22.91	36.55
5	122353	23.01	36.55
5	122910	23.11	36.55
5	123467	23.21	36.55
5	124024	23.31	36.55
5	124581	23.41	36.55
5	125138	23.51	36.55
5	125695	23.61	36.55
5	126252	23.71	36.55
5	126809	23.81	36.55
5	127366	23.91	36.55
5	127931	24.01	36.55
5	128488	24.11	36.55
5	129045	24.21	36.55
5	129602	24.31	36.55
5	130159	24.41	36.55
5	130716	24.51	36.55
5	131273	24.61	36.55
5	131830	24.71	36.55
5	132387	24.81	36.55
5	132944	24.91	36.55
5	133509	25.01	36.55
5	134066	25.11	36.55
5	134623	25.21	36.55
5	135180	25.31	36.55
5	135737	25.41	36.55
5	136294	25.51	36.55
5	136851	25.61	36.55
5	137408	25.71	36.55
5	137965	25.81	36.55
5	138522	25.91	36.55
5	139087	26.01	36.55
5	139644	26.11	36.55
5	140201	26.21	36.55
5	140758	26.31	36.55
5	141315	26.41	36.55
5	141872	26.51	36.55
5	142429	26.61	36.55
5	142986	26.71	36.55
5	143543	26.81	36.55
5	144100	26.91	36.55
5	144665	27.01	36.55
5	145222	27.11	36.55
5	145779	27.21	36.55
5	146336	27.31	36.55
5	146893	27.41	36.55
5	147450	27.51	36.55
5	148007	27.61	36.55
5	148564	27.71	36.55
5	149121	27.81	36.55
5	149678	27.91	36.55
5	150243	28.01	36.55
5	150800	28.11	36.55
5	151357	28.21	36.55
5	151914	28.31	36.55
5	152471	28.41	36.55
5	153028	28.51	36.55
5	153585	28.61	36.55
5	154142	28.71	36.55
5	154699	28.81	36.55
5	155256	28.91	36.55
5	155821	29.01	36.55
5	156378	29.11	36.55
5	156935	29.21	36.55
5	157492	29.31	36.55
5	158049	29.41	36.55
5	158606	29.51	36.55
5	159163	29.61	36.55
5	159720	29.71	36.55
5	160277	29.81	36.55
5	160834	29.91	36.55
5	161399	30.01	36.55
5	161956	30.11	36.55
5	162513	30.21	36.55
5	163070	30.31	36.55
5	163627	30.41	36.55
5	164184	30.51	36.55
5	164741	30.61	36.55
5	165298	30.71	36.55
5	165855	30.81	36.55
5	166412	30.91	36.55
5	166977	31.01	36.55
5	167534	31.11	36.55
5	168091	31.21	36.55
5	168648	31.31	36.55
5	169205	31.41	36.55
5	169762	31.51	36.55
5	170319	31.61	36.55
5	170876	31.71	36.55
5	171433	31.81	36.55
5	171990	31.91	36.55
5	172555	32.01	36.55
5	173112	32.11	36.55
5	173669	32.21	36.55
5	174226	32.31	36.55
5	174783	32.41	36.55
5	175340	32.51	36.55
5	175897	32.61	36.55
5	176454	32.71	36.55
5	177011	32.81	36.55
5	177568	32.91	36.55
5	178133	33.01	36.55
5	178690	33.11	36.55
5	179247	33.21	36.55
5	179804	33.31	36.55
5	180361	33.41	36.55
5	180918	33.51	36.55
5	181475	33.61	36.55
5	182032	33.71	36.55
5	182589	33.81	36.55
5	183146	33.91	36.55
5	183711	34.01	36.55
5	184268	34.11	36.55
5	184825	34.21	36.55
5	185382	34.31	36.55
5	185939	34.41	36.55
5	186496	34.51	36.55
5	187053	34.61	36.55
5	187610	34.71	36.55
5	188167	34.81	36.55
5	188724	34.91	36.55
5	189289	35.01	36.55
5	189846	35.11	36.55
5	190403	35.21	36.55
5	190960	35.31	36.55
5	191517	35.41	36.55
5	192074	35.51	36.55
5	192631	35.61	36.55
5	193188	35.71	36.55
5	193745	35.81	36.55
5	194302	35.91	36.55
5	194867	36.01	36.55
5	195424	36.11	36.55
5	195981	36.21	36.55
5	196538	36.31	36.55
5	197095	36.41	36.55
5	197652	36.51	36.55
5	198209	36.61	36.55
5	198766	36.71	36.55
5	199323	36.81	36.55
5	199880	36.91	36.55
5	200445	37.01	36.55
5	201002	37.11	36.55
5	201559	37.21	36.55
5	202116	37.31	36.55
5	202673	37.41	36.55
5	203230	37.51	36.55
5	203787	37.61	36.55
5	204344	37.71	36.55
5	204901	37.81	36.55
5	205458	37.91	36.55
5	206023	38.01	36.55
5	206580	38.11	36.55
5	207137	38.21	36.55
5	207694	38.31	36.55
5	208251	38.41	36.55
5	208808	38.51	36.55
5	209365	38.61	36.55
5	209922	38.71	36.55
5	210479	38.81	36.55
5	211036	38.91	36.55
5	211601	39.01	36.55
5	212158	39.11	36.55
5	212715	39.21	36.55
5	213272	39.31	36.55
5	213829	39.41	36.55
5	214386	39.51	36.55
5	214943	39.61	36.55
5	215500	39.71	36.55
5	216057	39.81	36.55
5	216614	39.91	36.55
5	217179	40.01	36.55
4	232	1.11	210.67929573099
4	788	1.21	214.01262893981
4	1344	1.31	217.3459621527
4	1900	1.41	220.67929537109
4	2456	1.51	224.01262859606
4	3012	1.61	227.34596182837
4	3568	1.71	230.67929506851
4	4124	1.81	234.01262831674
4	4680	1.91	237.34596157315
4	5244	2.01	240.67929483763
4	5800	2.11	244.01262810998
4	6356	2.21	247.34596138987
4	6912	2.31	250.67929467691
4	7468	2.41	254.01262797064
4	8024	2.51	257.34596127058
4	8580	2.61	260.6792945762
4	9136	2.71	264.01262788698
4	9692	2.81	267.3459612024
4	10248	2.91	270.67929452195
4	10812	3.01	274.01262784514
4	11368	3.11	277.34596117148
4	11924	3.21	280.67929450055
4	12480	3.31	284.01262783192
4	13036	3.41	287.34596116522
4	13592	3.51	290.6792945001
4	14148	3.61	294.01262783625
4	14704	3.71	297.34596117339
4	15260	3.81	300.67929451128
4	15816	3.91	304.0126278497
4	16380	4.01	307.34596118846
4	16936	4.11	310.67929452741
4	17492	4.21	314.0126278664
4	18048	4.31	317.34596120534
4	18604	4.41	320.67929454412
4	19160	4.51	324.01262788269
4	19716	4.61	327.34596122098
4	20272	4.71	330.67929455896
4	20828	4.81	334.01262789659
4	21384	4.91	337.34596123387
4	21949	5.01	340.67929457078
4	22506	5.11	344.01262927262
4	23063	5.21	347.34619047581
4	23620	5.31	350.68075177204
4	24177	5.41	354.01753778897
4	24734	5.51	357.35809851034
4	25291	5.61	360.70416879862
4	25848	5.71	364.05743413835
4	26405	5.81	367.41929657003
4	26962	5.91	370.79090638696
4	27527	6.01	374.17320723032
4	28084	6.11	377.56697321453
4	28641	6.21	380.97283938305
4	29198	6.31	384.3913266927
4	29755	6.41	387.82286250952
4	30312	6.51	391.26779739084
4	30869	6.61	394.72638908659
4	31426	6.71	398.19859116381
4	31983	6.81	401.68387710596
4	32540	6.91	405.18125813671
4	33105	7.01	408.68931954326
4	33662	7.11	412.20626421111
4	34219	7.21	415.72996221432
4	34776	7.31	419.25800529353
4	35333	7.41	422.78776551179
4	35890	7.51	426.31652994187
4	36447	7.61	429.84180077741
4	37004	7.71	433.3615108731
4	37561	7.81	436.87396444981
4	38118	7.91	440.37777037802
4	38683	8.01	443.87178744697
4	39240	8.11	447.35507946637
4	39797	8.21	450.82687843411
4	40354	8.31	454.28655432095
4	40911	8.41	457.73359028348
4	41468	8.51	461.1675623301
4	42025	8.61	464.58812264001
4	42582	8.71	467.994985879
4	43139	8.81	471.38791797366
4	43696	8.91	474.76672690224
4	44261	9.01	478.13125514005
4	44818	9.11	481.48137346194
4	45375	9.21	484.81697585832
4	45932	9.31	488.13797536439
4	46489	9.41	491.4443006387
4	47046	9.51	494.73589541925
4	47603	9.61	498.01295500642
4	48160	9.71	501.27634072153
4	48717	9.81	504.52754432698
4	49274	9.91	507.76858293581
4	49839	10.01	511.00189438753
4	50396	10.11	514.23023439898
4	50953	10.21	517.45657572941
4	51510	10.31	520.68384659275
4	52067	10.41	523.91456829813
4	52624	10.51	527.15081567143
4	53181	10.61	530.3942907925
4	53738	10.71	533.64638995967
4	54295	10.81	536.90825862391
4	54852	10.91	540.18083645395
4	55417	11.01	543.46489430546
4	55974	11.11	546.76106454856
4	56531	11.21	550.06986594701
4	57088	11.31	553.39172406779
4	57645	11.41	556.72698802402
4	58202	11.51	560.07594421008
4	58759	11.61	563.4388275691
4	59316	11.71	566.81583083629
4	59873	11.81	570.20711212164
4	60430	11.91	573.61278633101
4	60995	12.01	577.03264843462
4	61552	12.11	580.46585311651
4	62109	12.21	583.91097127534
4	62666	12.31	587.36607702048
4	63223	12.41	590.82883646319
4	63780	12.51	594.29659693986
4	64337	12.61	597.76647624231
4	64894	12.71	601.23558562139
4	65451	12.81	604.70137930267
4	66008	12.91	608.1617581814
4	66573	13.01	611.61500026056
4	67130	13.11	615.05969290283
4	67687	13.21	618.49467725357
4	68244	13.31	621.91900264837
4	68801	13.41	625.33188921127
4	69358	13.51	628.73269717237
4	69915	13.61	632.12090169753
4	70472	13.71	635.49607223992
4	71029	13.81	638.85785560122
4	71586	13.91	642.20596203577
4	72151	14.01	645.5401538512
4	72708	14.11	648.860236057
4	73265	14.21	652.16604869302
4	73822	14.31	655.45746053623
4	74379	14.41	658.7343647191
4	74936	14.51	661.99682777946
4	75493	14.61	665.24546502336
4	76050	14.71	668.48152018541
4	76607	14.81	671.70677908294
4	77164	14.91	674.92347520017
4	77729	15.01	678.13419513919
4	78286	15.11	681.34178481836
4	78843	15.21	684.54918711145
4	79400	15.31	687.75911117168
4	79957	15.41	690.97379873479
4	80514	15.51	694.1950888049
4	81071	15.61	697.4244900059
4	81628	15.71	700.66323993483
4	82185	15.81	703.91235385234
4	82742	15.91	707.17266462575
4	83307	16.01	710.44485549637
4	83864	16.11	713.72948696004
4	84421	16.21	717.02701881857
4	84978	16.31	720.33782826959
4	85535	16.41	723.66222474654
4	86092	16.51	727.00046209262
4	86649	16.61	730.35274854765
4	87206	16.71	733.71925494083
4	87763	16.81	737.10012141159
4	88320	16.91	740.49546190863
4	88885	17.01	743.90517992793
4	89442	17.11	747.32857709927
4	89999	17.21	750.76433976138
4	90556	17.31	754.21062861743
4	91113	17.41	757.66517115537
4	91670	17.51	761.12535430063
4	92227	17.61	764.58831658581
4	92784	17.71	768.05113236582
4	93341	17.81	771.5111493765
4	93898	17.91	774.96617564601
4	94463	18.01	778.41441299399
4	95020	18.11	781.85438628622
4	95577	18.21	785.28488539888
4	96134	18.31	788.70491760893
4	96691	18.41	792.11366853771
4	97248	18.51	795.51047011108
4	97805	18.61	798.89477427556
4	98362	18.71	802.2661314364
4	98919	18.81	805.62417276931
4	99476	18.91	808.96859570992
4	100041	19.01	812.29915205005
4	100598	19.11	815.61563817255
4	101155	19.21	818.91788704044
4	101712	19.31	822.20576162522
4	102269	19.41	825.4791504345
4	102826	19.51	828.73813863421
4	103383	19.61	831.98339376131
4	103940	19.71	835.21620354999
4	104497	19.81	838.43838745995
4	105054	19.91	841.65220351786
4	105619	20.01	844.86025496293
4	106176	20.11	848.06539747344
4	106733	20.21	851.27056304134
4	107290	20.31	854.47842496277
4	107847	20.41	857.69119360873
4	108404	20.51	860.91068225332
4	108961	20.61	864.13837841287
4	109518	20.71	867.37550236885
4	110075	20.81	870.62305517712
4	110632	20.91	873.88185805213
4	111197	21.01	877.15258467577
4	111754	21.11	880.43578770182
4	112311	21.21	883.73192049889
4	112868	21.31	887.04135498712
4	113425	21.41	890.3643962706
4	113982	21.51	893.70129464091
4	114539	21.61	897.05225542436
4	115096	21.71	900.41744706002
4	115653	21.81	903.7970077266
4	116210	21.91	907.1910498301
4	116775	22.01	910.59948407832
4	117332	22.11	914.02163151153
4	117889	22.21	917.45619476951
4	118446	22.31	920.9013470252
4	119003	22.41	924.35482486963
4	119560	22.51	927.81402140625
4	120117	22.61	931.27607880056
4	120674	22.71	934.73806740525
4	121231	22.81	938.19732171527
4	121788	22.91	941.6516381758
4	122353	23.01	945.09920910439
4	122910	23.11	948.53855157183
4	123467	23.21	951.96844905965
4	124024	23.31	955.387903599
4	124581	23.41	958.79609650781
4	125138	23.51	962.19235618166
4	125695	23.61	965.576131671
4	126252	23.71	968.9469710053
4	126809	23.81	972.30450341129
4	127366	23.91	975.64842472578
4	127931	24.01	978.97848542899
4	128488	24.11	982.2944808278
4	129045	24.21	985.59624300255
4	129602	24.31	988.88363420064
4	130159	24.41	992.15654235452
4	130716	24.51	995.41505522476
4	131273	24.61	998.65984753198
4	131830	24.71	1001.8922130641
4	132387	24.81	1005.113975914
4	132944	24.91	1008.327397493
4	133509	25.01	1011.5350833405
4	134066	25.11	1014.7398904906
4	134623	25.21	1017.9447494604
4	135180	25.31	1021.152328646
4	135737	25.41	1024.3648341316
4	136294	25.51	1027.5840756745
4	136851	25.61	1030.811537906
4	137408	25.71	1034.048438741
4	137965	25.81	1037.2957772937
4	138522	25.91	1040.5543731861
4	139087	26.01	1043.8248987932
4	139644	26.11	1047.1079056972
4	140201	26.21	1050.4038463874
4	140758	26.31	1053.7130920624
4	141315	26.41	1057.0359472348
4	141872	26.51	1060.3726617107
4	142429	26.61	1063.723440418
4	142986	26.71	1067.0884514693
4	143543	26.81	1070.4678327753
4	144100	26.91	1073.861696529
4	144665	27.01	1077.2699544016
4	145222	27.11	1080.6919300993
4	145779	27.21	1084.1263285083
4	146336	27.31	1087.5713245213
4	146893	27.41	1091.0246559855
4	147450	27.51	1094.4837168579
4	148007	27.61	1097.9456498074
4	148564	27.71	1101.4075246396
4	149121	27.81	1104.8666740313
4	149678	27.91	1108.320892837
4	150243	28.01	1111.7683720693
4	150800	28.11	1115.2076277286
4	151357	28.21	1118.6374424183
4	151914	28.31	1122.056817449
4	152471	28.41	1125.4649335478
4	153028	28.51	1128.8611186254
4	153585	28.61	1132.2448213346
4	154142	28.71	1135.6155893785
4	154699	28.81	1138.9730517163
4	155256	28.91	1142.3169039652
4	155821	29.01	1145.6468964253
4	156378	29.11	1148.9628242558
4	156935	29.21	1152.2645194156
4	157492	29.31	1155.5518440529
4	158049	29.41	1158.8246860211
4	158606	29.51	1162.0831334382
4	159163	29.61	1165.3278620141
4	159720	29.71	1168.5601663706
4	160277	29.81	1171.7818712386
4	160834	29.91	1174.9952384957
4	161399	30.01	1178.2028739979
4	161956	30.11	1181.4076349663
4	162513	30.21	1184.6124517149
4	163070	30.31	1187.8199919651
4	163627	30.41	1191.0324612107
4	164184	30.51	1194.2516687249
4	164741	30.61	1197.4790987417
4	165298	30.71	1200.7159688501
4	165855	30.81	1203.963277897
4	166412	30.91	1207.2218452849
4	166977	31.01	1210.4923432093
4	167534	31.11	1213.7753231043
4	168091	31.21	1217.0712373384
4	168648	31.31	1220.380457011
4	169205	31.41	1223.7032865529
4	169762	31.51	1227.0399757035
4	170319	31.61	1230.3907293361
4	170876	31.71	1233.7557155179
4	171433	31.81	1237.135072123
4	171990	31.91	1240.528911315
4	172555	32.01	1243.9371448977
4	173112	32.11	1247.3590969445
4	173669	32.21	1250.7934726511
4	174226	32.31	1254.2384471468
4	174783	32.41	1257.6917584519
4	175340	32.51	1261.1508006411
4	175897	32.61	1264.6127164524
4	176454	32.71	1268.0745756162
4	177011	32.81	1271.5337105588
4	177568	32.91	1274.9879159157
4	178133	33.01	1278.4353825199
4	178690	33.11	1281.8746262243
4	179247	33.21	1285.3044295112
4	179804	33.31	1288.7237935922
4	180361	33.41	1292.1318991129
4	180918	33.51	1295.5280739173
4	181475	33.61	1298.9117666034
4	182032	33.71	1302.2825248294
4	182589	33.81	1305.6399775176
4	183146	33.91	1308.983820255
4	183711	34.01	1312.3138033168
4	184268	34.11	1315.6297218419
4	184825	34.21	1318.9314077726
4	185382	34.31	1322.2187232433
4	185939	34.41	1325.4915560966
4	186496	34.51	1328.7499944996
4	187053	34.61	1331.9947142986
4	187610	34.71	1335.2270102301
4	188167	34.81	1338.448707113
4	188724	34.91	1341.662066889
4	189289	35.01	1344.8696954579
4	189846	35.11	1348.0744500662
4	190403	35.21	1351.2792610002
4	190960	35.31	1354.4867958883
4	191517	35.41	1357.6992601431
4	192074	35.51	1360.9184629709
4	192631	35.61	1364.1458885512
4	193188	35.71	1367.382754428
4	193745	35.81	1370.6300594114
4	194302	35.91	1373.8886228738
4	194867	36.01	1377.1591169857
4	195424	36.11	1380.4420931611
4	195981	36.21	1383.7380037517
4	196538	36.31	1387.0472198433
4	197095	36.41	1390.3700458555
4	197652	36.51	1393.7067315184
4	198209	36.61	1397.0574816977
4	198766	36.71	1400.4224644546
4	199323	36.81	1403.8018176579
4	199880	36.91	1407.1956534673
4	200445	37.01	1410.6038837049
4	201002	37.11	1414.0258324945
4	201559	37.21	1417.4602050746
4	202116	37.31	1420.905176607
4	202673	37.41	1424.3584851359
4	203230	37.51	1427.817524752
4	203787	37.61	1431.2794382031
4	204344	37.71	1434.7412952091
4	204901	37.81	1438.2004281618
4	205458	37.91	1441.6546316666
4	206023	38.01	1445.1020965317
4	206580	38.11	1448.5413385896
4	207137	38.21	1451.9711403062
4	207694	38.31	1455.3905028792
4	208251	38.41	1458.7986069431
4	208808	38.51	1462.1947803328
4	209365	38.61	1465.5784716385
4	209922	38.71	1468.9492285124
4	210479	38.81	1472.3066798717
4	211036	38.91	1475.6505212991
4	211601	39.01	1478.9805030667
4	212158	39.11	1482.2964203102
4	212715	39.21	1485.59810497
4	213272	39.31	1488.8854191783
4	213829	39.41	1492.1582507762
4	214386	39.51	1495.4166879378
4	214943	39.61	1498.6614065281
4	215500	39.71	1501.8937012994
4	216057	39.81	1505.1153970825
4	216614	39.91	1508.3287558283
4	217179	40.01	1511.5363834423
3	232	1.11	33.333332070582
3	788	1.21	33.333332100049
3	1344	1.31	33.333332146342
3	1900	1.41	33.333332205608
3	2456	1.51	33.333332274454
3	3012	1.61	33.333332349923
3	3568	1.71	33.333332429473
3	4124	1.81	33.333332510943
3	4680	1.91	33.333332592527
3	5244	2.01	33.333332672741
3	5800	2.11	33.333332750393
3	6356	2.21	33.33333282455
3	6912	2.31	33.33333289451
3	7468	2.41	33.333332959772
3	8024	2.51	33.33333302001
3	8580	2.61	33.333333075046
3	9136	2.71	33.333333124827
3	9692	2.81	33.333333169405
3	10248	2.91	33.333333208914
3	10812	3.01	33.333333243557
3	11368	3.11	33.333333273586
3	11924	3.21	33.333333299293
3	12480	3.31	33.333333320991
3	13036	3.41	33.333333339013
3	13592	3.51	33.333333353695
3	14148	3.61	33.333333365375
3	14704	3.71	33.333333374381
3	15260	3.81	33.333333381033
3	15816	3.91	33.333333385635
3	16380	4.01	33.333333388471
3	16936	4.11	33.33333338981
3	17492	4.21	33.333333389894
3	18048	4.31	33.33333338895
3	18604	4.41	33.333333387177
3	19160	4.51	33.333333384757
3	19716	4.61	33.333333381849
3	20272	4.71	33.333333378594
3	20828	4.81	33.333333375112
3	21384	4.91	33.333333371506
3	21949	5.01	33.333333367863
3	22506	5.11	33.333401628544
3	23063	5.21	33.337615197889
3	23620	5.31	33.351331457648
3	24177	5.41	33.378611875711
3	24734	5.51	33.422277525915
3	25291	5.61	33.483619363034
3	25848	5.71	33.560883289289
3	26405	5.81	33.651214374853
3	26962	5.91	33.75226508234
3	27527	6.01	33.862109613447
3	28084	6.11	33.97916814281
3	28641	6.21	34.102144663378
3	29198	6.31	34.229975997969
3	29755	6.41	34.36178997099
3	30312	6.51	34.49686951103
3	30869	6.61	34.63394454499
3	31426	6.71	34.768907460539
3	31983	6.81	34.896940693623
3	32540	6.91	35.013537294543
3	33105	7.01	35.114580456764
3	33662	7.11	35.196411611993
3	34219	7.21	35.255886909516
3	34776	7.31	35.290421999417
3	35333	7.41	35.298048086563
3	35890	7.51	35.278759124112
3	36447	7.61	35.23598770154
3	37004	7.71	35.17395248273
3	37561	7.81	35.096114241429
3	38118	7.91	35.005312017494
3	38683	8.01	34.903874812445
3	39240	8.11	34.79371321872
3	39797	8.21	34.676394587578
3	40354	8.31	34.553204692958
3	40911	8.41	34.425198317326
3	41468	8.51	34.293240749685
3	42025	8.61	34.158041828395
3	42582	8.71	34.020183868152
3	43139	8.81	33.880144569824
3	43696	8.91	33.738315814505
3	44261	9.01	33.595019081188
3	44818	9.11	33.450518094614
3	45375	9.21	33.30502920093
3	45932	9.31	33.158729879327
3	46489	9.41	33.011765724558
3	47046	9.51	32.864353863035
3	47603	9.61	32.721012496936
3	48160	9.71	32.588643994693
3	48717	9.81	32.473185082585
3	49274	9.91	32.37952165218
3	49839	10.01	32.31149760861
3	50396	10.11	32.271937243073
3	50953	10.21	32.262628456892
3	51510	10.31	32.281431757463
3	52067	10.41	32.323804768138
3	52624	10.51	32.385513150424
3	53181	10.61	32.463083271939
3	53738	10.71	32.553665544264
3	54295	10.81	32.654922312383
3	54852	10.91	32.764935884979
3	55417	11.01	32.88213308724
3	55974	11.11	33.005223367884
3	56531	11.21	33.13314802536
3	57088	11.31	33.265038555652
3	57645	11.41	33.400182482965
3	58202	11.51	33.537995328993
3	58759	11.61	33.677997617952
3	59316	11.71	33.819796012697
3	59873	11.81	33.96306783977
3	60430	11.91	34.107141747152
3	60995	12.01	34.246982852793
3	61552	12.11	34.376202942323
3	62109	12.21	34.489264817717
3	62666	12.31	34.581509590607
3	63223	12.41	34.649169726167
3	63780	12.51	34.689368787218
3	64337	12.61	34.7001510107
3	64894	12.71	34.682882928545
3	65451	12.81	34.641769331689
3	66008	12.91	34.581094107388
3	66573	13.01	34.504371535269
3	67130	13.11	34.414484548651
3	67687	13.21	34.313798156979
3	68244	13.31	34.204252491731
3	68801	13.41	34.087439136468
3	69358	13.51	33.964663744057
3	69915	13.61	33.836997404607
3	70472	13.71	33.705318785069
3	71029	13.81	33.570348698382
3	71586	13.91	33.432678462216
3	72151	14.01	33.292793163015
3	72708	14.11	33.151090740619
3	73265	14.21	33.0078976443
3	73822	14.31	32.863481676162
3	74379	14.41	32.718101580034
3	74936	14.51	32.574886427257
3	75493	14.61	32.440114751869
3	76050	14.71	32.319814522883
3	76607	14.81	32.219077485442
3	77164	14.91	32.142048757657
3	77729	15.01	32.091930244201
3	78286	15.11	32.070975264143
3	78843	15.21	32.079224413257
3	79400	15.31	32.112939343728
3	79957	15.41	32.167545084638
3	80514	15.51	32.239288566376
3	81071	15.61	32.325090964666
3	81628	15.71	32.422426571247
3	82185	15.81	32.529223425642
3	82742	15.91	32.643781798595
3	83307	16.01	32.764707320103
3	83864	16.11	32.890856121102
3	84421	16.21	33.021289830551
3	84978	16.31	33.155238657363
3	85535	16.41	33.292071104728
3	86092	16.51	33.43126912531
3	86649	16.61	33.572407739859
3	87206	16.71	33.715138317369
3	87763	16.81	33.859174858989
3	88320	16.91	34.00423217336
3	88885	17.01	34.146527003479
3	89442	17.11	34.279561763556
3	89999	17.21	34.397486339902
3	90556	17.31	34.49536634699
3	91113	17.41	34.569194390325
3	91670	17.51	34.615887710296
3	92227	17.61	34.633302198405
3	92784	17.71	34.621906345921
3	93341	17.81	34.585610022692
3	93898	17.91	34.528886640621
3	94463	18.01	34.455405955556
3	95020	18.11	34.368178445471
3	95577	18.21	34.269673750852
3	96134	18.31	34.161917837073
3	96691	18.41	34.046572701384
3	97248	18.51	33.925001760404
3	97805	18.61	33.798323490638
3	98362	18.71	33.667455432386
3	98919	18.81	33.533150288272
3	99476	18.91	33.396025536615
3	100041	19.01	33.256587724703
3	100598	19.11	33.115252397745
3	101155	19.21	32.972360447543
3	101712	19.31	32.828191524111
3	102269	19.41	32.683020974216
3	102826	19.51	32.540389451904
3	103383	19.61	32.406715289624
3	103940	19.71	32.287914451662
3	104497	19.81	32.188979592244
3	105054	19.91	32.113969109672
3	105619	20.01	32.066009892824
3	106176	20.11	32.047286503659
3	106733	20.21	32.057518927939
3	107290	20.31	32.092860834819
3	107847	20.41	32.148801263061
3	108404	20.51	32.221639653283
3	108961	20.61	32.308340257886
3	109518	20.71	32.406412706488
3	110075	20.81	32.513814027983
3	110632	20.91	32.628868274494
3	111197	21.01	32.750200585031
3	111754	21.11	32.87668309472
3	112311	21.21	33.007390561525
3	112868	21.31	33.141563964718
3	113425	21.41	33.278580642935
3	113982	21.51	33.417929796984
3	114539	21.61	33.559192393615
3	115096	21.71	33.702024679617
3	115653	21.81	33.846144657624
3	116210	21.91	33.99127355855
3	116775	22.01	34.133781378533
3	117332	22.11	34.267219468202
3	117889	22.21	34.385696284949
3	118446	22.31	34.484240786262
3	119003	22.41	34.558813492781
3	119560	22.51	34.606303886233
3	120117	22.61	34.624542412731
3	120674	22.71	34.61387898274
3	121231	22.81	34.578183501056
3	121788	22.91	34.521953018326
3	122353	23.01	34.448876682398
3	122910	23.11	34.361980879439
3	123467	23.21	34.263748300197
3	124024	23.31	34.156215615805
3	124581	23.41	34.041053605964
3	125138	23.51	33.919632891962
3	125695	23.61	33.793077860643
3	126252	23.71	33.66231090084
3	126809	23.81	33.528088692668
3	127366	23.91	33.391031977369
3	127931	24.01	33.251649978969
3	128488	24.11	33.110360438529
3	129045	24.21	32.967506049221
3	129602	24.31	32.823367938803
3	130159	24.41	32.67822360761
3	130716	24.51	32.535669905051
3	131273	24.61	32.402144231196
3	131830	24.71	32.283547191314
3	132387	24.81	32.184857847866
3	132944	24.91	32.110122700925
3	133509	25.01	32.062458343834
3	134066	25.11	32.044039899942
3	134623	25.21	32.054543396576
3	135180	25.31	32.090107677201
3	135737	25.41	32.146230529366
3	136294	25.51	32.219218570743
3	136851	25.61	32.306041941417
3	137408	25.71	32.404215100957
3	137965	25.81	32.511699040498
3	138522	25.91	32.626821062583
3	139087	26.01	32.748208972697
3	139644	26.11	32.874737093404
3	140201	26.21	33.00548197713
3	140758	26.31	33.139686075231
3	141315	26.41	33.276727933964
3	141872	26.51	33.416097744805
3	142429	26.61	33.557377287201
3	142986	26.71	33.700223474632
3	143543	26.81	33.844354856653
3	144100	26.91	33.989493462117
3	144665	27.01	34.132030137959
3	145222	27.11	34.265523309485
3	145779	27.21	34.384075734601
3	146336	27.31	34.482711327072
3	146893	27.41	34.557386192231
3	147450	27.51	34.604985991209
3	148007	27.61	34.623337667502
3	148564	27.71	34.612774819361
3	149121	27.81	34.577161849829
3	149678	27.91	34.520999055801
3	150243	28.01	34.447978248185
3	150800	28.11	34.361127997782
3	151357	28.21	34.262932787503
3	151914	28.31	34.155430758675
3	152471	28.41	34.040293897074
3	153028	28.51	33.918893813388
3	153585	28.61	33.792355706113
3	154142	28.71	33.661602629922
3	154699	28.81	33.527391811146
3	155256	28.91	33.39034443912
3	155821	29.01	33.250970105458
3	156378	29.11	33.109686852772
3	156935	29.21	32.966837621612
3	157492	29.31	32.822703742673
3	158049	29.41	32.677563012382
3	158606	29.51	32.53502001788
3	159163	29.61	32.401514784645
3	159720	29.71	32.282945802856
3	160277	29.81	32.184290263234
3	160834	29.91	32.109593027321
3	161399	30.01	32.061969270629
3	161956	30.11	32.043592816673
3	162513	30.21	32.054133639286
3	163070	30.31	32.089728540214
3	163627	30.41	32.145876511694
3	164184	30.51	32.218885159657
3	164741	30.61	32.305725434909
3	165298	30.71	32.403912462091
3	165855	30.81	32.511407777928
3	166412	30.91	32.626539132538
3	166977	31.01	32.747934698574
3	167534	31.11	32.874469099802
3	168091	31.21	33.005219135744
3	168648	31.31	33.139427460457
3	169205	31.41	33.276472786482
3	169762	31.51	33.415845441712
3	170319	31.61	33.557127317498
3	170876	31.71	33.69997541912
3	171433	31.81	33.844108371445
3	171990	31.91	33.989248313206
3	172555	32.01	34.131788962834
3	173112	32.11	34.265289719931
3	173669	32.21	34.383852557486
3	174226	32.31	34.482500694658
3	174783	32.41	34.557189628713
3	175340	32.51	34.604804494622
3	175897	32.61	34.623171753508
3	176454	32.71	34.612622757152
3	177011	32.81	34.577021150908
3	177568	32.91	34.520867678733
3	178133	33.01	34.447854518284
3	178690	33.11	34.361010541222
3	179247	33.21	34.262820477267
3	179804	33.31	34.155322670218
3	180361	33.41	34.040189271946
3	180918	33.51	33.918792029396
3	181475	33.61	33.792256252841
3	182032	33.71	33.661505088653
3	182589	33.81	33.527295838386
3	183146	33.91	33.390249753082
3	183711	34.01	33.250876474981
3	184268	34.11	33.109594088223
3	184825	34.21	32.966745567426
3	185382	34.31	32.822612271231
3	185939	34.41	32.677472036844
3	186496	34.51	32.534930517026
3	187053	34.61	32.40142809882
3	187610	34.71	32.28286298112
3	188167	34.81	32.184212096876
3	188724	34.91	32.109520081976
3	189289	35.01	32.061901916669
3	189846	35.11	32.043531245463
3	190403	35.21	32.054077208517
3	190960	35.31	32.089676326398
3	191517	35.41	32.145827757247
3	192074	35.51	32.218839243098
3	192631	35.61	32.305681846407
3	193188	35.71	32.403870783406
3	193745	35.81	32.511367665959
3	194302	35.91	32.626500305822
3	194867	36.01	32.747896926212
3	195424	36.11	32.874432192378
3	195981	36.21	33.005182937871
3	196538	36.31	33.139391844662
3	197095	36.41	33.276437648195
3	197652	36.51	33.415810695147
3	198209	36.61	33.557092892281
3	198766	36.71	33.699941257521
3	199323	36.81	33.844074426105
3	199880	36.91	33.989214551897
3	200445	37.01	34.131755748785
3	201002	37.11	34.265257550548
3	201559	37.21	34.383821822079
3	202116	37.31	34.482471686876
3	202673	37.41	34.557162558465
3	203230	37.51	34.604779499354
3	203787	37.61	34.623148904237
3	204344	37.71	34.612601815515
3	204901	37.81	34.577001774195
3	205458	37.91	34.520849585803
3	206023	38.01	34.447837478503
3	206580	38.11	34.36099436539
3	207137	38.21	34.262805010174
3	207694	38.31	34.155307784537
3	208251	38.41	34.040174863226
3	208808	38.51	33.91877801195
3	209365	38.61	33.792242556377
3	209922	38.71	33.661491655505
3	210479	38.81	33.527282621248
3	211036	38.91	33.390236713149
3	211601	39.01	33.250863580417
3	212158	39.11	33.109581312913
3	212715	39.21	32.966732889944
3	213272	39.31	32.822599674004
3	213829	39.41	32.677459507911
3	214386	39.51	32.534918191183
3	214943	39.61	32.401416160656
3	215500	39.71	32.282851575109
3	216057	39.81	32.184201331992
3	216614	39.91	32.109510036116
3	217179	40.01	32.061892640842
1	232	1.11	0
1	788	1.21	0
1	1344	1.31	0
1	1900	1.41	0
1	2456	1.51	0
1	3012	1.61	0
1	3568	1.71	0
1	4124	1.81	0
1	4680	1.91	0
1	5244	2.01	0
1	5800	2.11	0
1	6356	2.21	0
1	6912	2.31	0
1	7468	2.41	0
1	8024	2.51	0
1	8580	2.61	0
1	9136	2.71	0
1	9692	2.81	0
1	10248	2.91	0
1	10812	3.01	0
1	11368	3.11	0
1	11924	3.21	0
1	12480	3.31	0
1	13036	3.41	0
1	13592	3.51	0
1	14148	3.61	0
1	14704	3.71	0
1	15260	3.81	0
1	15816	3.91	0
1	16380	4.01	0
1	16936	4.11	0
1	17492	4.21	0
1	18048	4.31	0
1	18604	4.41	0
1	19160	4.51	0
1	19716	4.61	0
1	20272	4.71	0
1	20828	4.81	0
1	21384	4.91	0
1	21949	5.01	0
1	22506	5.11	0
1	23063	5.21	0
1	23620	5.31	0
1	24177	5.41	0
1	24734	5.51	0
1	25291	5.61	0
1	25848	5.71	0
1	26405	5.81	0
1	26962	5.91	0
1	27527	6.01	0
1	28084	6.11	0
1	28641	6.21	0
1	29198	6.31	0
1	29755	6.41	0
1	30312	6.51	0
1	30869	6.61	0
1	31426	6.71	0
1	31983	6.81	0
1	32540	6.91	0
1	33105	7.01	0
1	33662	7.11	0
1	34219	7.21	0
1	34776	7.31	0
1	35333	7.41	0
1	35890	7.51	0
1	36447	7.61	0
1	37004	7.71	0
1	37561	7.81	0
1	38118	7.91	0
1	38683	8.01	0
1	39240	8.11	0
1	39797	8.21	0
1	40354	8.31	0
1	40911	8.41	0
1	41468	8.51	0
1	42025	8.61	0
1	42582	8.71	0
1	43139	8.81	0
1	43696	8.91	0
1	44261	9.01	0
1	44818	9.11	0
1	45375	9.21	0
1	45932	9.31	0
1	46489	9.41	0
1	47046	9.51	0
1	47603	9.61	0
1	48160	9.71	0
1	48717	9.81	0
1	49274	9.91	0
1	49839	10.01	0
1	50396	10.11	0
1	50953	10.21	0
1	51510	10.31	0
1	52067	10.41	0
1	52624	10.51	0
1	53181	10.61	0
1	53738	10.71	0
1	54295	10.81	0
1	54852	10.91	0
1	55417	11.01	0
1	55974	11.11	0
1	56531	11.21	0
1	57088	11.31	0
1	57645	11.41	0
1	58202	11.51	0
1	58759	11.61	0
1	59316	11.71	0
1	59873	11.81	0
1	60430	11.91	0
1	60995	12.01	0
1	61552	12.11	0
1	62109	12.21	0
1	62666	12.31	0
1	63223	12.41	0
1	63780	12.51	0
1	64337	12.61	0
1	64894	12.71	0
1	65451	12.81	0
1	66008	12.91	0
1	66573	13.01	0
1	67130	13.11	0
1	67687	13.21	0
1	68244	13.31	0
1	68801	13.41	0
1	69358	13.51	0
1	69915	13.61	0
1	70472	13.71	0
1	71029	13.81	0
1	71586	13.91	0
1	72151	14.01	0
1	72708	14.11	0
1	73265	14.21	0
1	73822	14.31	0
1	74379	14.41	0
1	74936	14.51	0
1	75493	14.61	0
1	76050	14.71	0
1	76607	14.81	0
1	77164	14.91	0
1	77729	15.01	0
1	78286	15.11	0
1	78843	15.21	0
1	79400	15.31	0
1	79957	15.41	0
1	80514	15.51	0
1	81071	15.61	0
1	81628	15.71	0
1	82185	15.81	0
1	82742	15.91	0
1	83307	16.01	0
1	83864	16.11	0
1	84421	16.21	0
1	84978	16.31	0
1	85535	16.41	0
1	86092	16.51	0
1	86649	16.61	0
1	87206	16.71	0
1	87763	16.81	0
1	88320	16.91	0
1	88885	17.01	0
1	89442	17.11	0
1	89999	17.21	0
1	90556	17.31	0
1	91113	17.41	0
1	91670	17.51	0
1	92227	17.61	0
1	92784	17.71	0
1	93341	17.81	0
1	93898	17.91	0
1	94463	18.01	0
1	95020	18.11	0
1	95577	18.21	0
1	96134	18.31	0
1	96691	18.41	0
1	97248	18.51	0
1	97805	18.61	0
1	98362	18.71	0
1	98919	18.81	0
1	99476	18.91	0
1	100041	19.01	0
1	100598	19.11	0
1	101155	19.21	0
1	101712	19.31	0
1	102269	19.41	0
1	102826	19.51	0
1	103383	19.61	0
1	103940	19.71	0
1	104497	19.81	0
1	105054	19.91	0
1	105619	20.01	0
1	106176	20.11	0
1	106733	20.21	0
1	107290	20.31	0
1	107847	20.41	0
1	108404	20.51	0
1	108961	20.61	0
1	109518	20.71	0
1	110075	20.81	0
1	110632	20.91	0
1	111197	21.01	0
1	111754	21.11	0
1	112311	21.21	0
1	112868	21.31	0
1	113425	21.41	0
1	113982	21.51	0
1	114539	21.61	0
1	115096	21.71	0
1	115653	21.81	0
1	116210	21.91	0
1	116775	22.01	0
1	117332	22.11	0
1	117889	22.21	0
1	118446	22.31	0
1	119003	22.41	0
1	119560	22.51	0
1	120117	22.61	0
1	120674	22.71	0
1	121231	22.81	0
1	121788	22.91	0
1	122353	23.01	0
1	122910	23.11	0
1	123467	23.21	0
1	124024	23.31	0
1	124581	23.41	0
1	125138	23.51	0
1	125695	23.61	0
1	126252	23.71	0
1	126809	23.81	0
1	127366	23.91	0
1	127931	24.01	0
1	128488	24.11	0
1	129045	24.21	0
1	129602	24.31	0
1	130159	24.41	0
1	130716	24.51	0
1	131273	24.61	0
1	131830	24.71	0
1	132387	24.81	0
1	132944	24.91	0
1	133509	25.01	0
1	134066	25.11	0
1	134623	25.21	0
1	135180	25.31	0
1	135737	25.41	0
1	136294	25.51	0
1	136851	25.61	0
1	137408	25.71	0
1	137965	25.81	0
1	138522	25.91	0
1	139087	26.01	0
1	139644	26.11	0
1	140201	26.21	0
1	140758	26.31	0
1	141315	26.41	0
1	141872	26.51	0
1	142429	26.61	0
1	142986	26.71	0
1	143543	26.81	0
1	144100	26.91	0
1	144665	27.01	0
1	145222	27.11	0
1	145779	27.21	0
1	146336	27.31	0
1	146893	27.41	0
1	147450	27.51	0
1	148007	27.61	0
1	148564	27.71	0
1	149121	27.81	0
1	149678	27.91	0
1	150243	28.01	0
1	150800	28.11	0
1	151357	28.21	0
1	151914	28.31	0
1	152471	28.41	0
1	153028	28.51	0
1	153585	28.61	0
1	154142	28.71	0
1	154699	28.81	0
1	155256	28.91	0
1	155821	29.01	0
1	156378	29.11	0
1	156935	29.21	0
1	157492	29.31	0
1	158049	29.41	0
1	158606	29.51	0
1	159163	29.61	0
1	159720	29.71	0
1	160277	29.81	0
1	160834	29.91	0
1	161399	30.01	0
1	161956	30.11	0
1	162513	30.21	0
1	163070	30.31	0
1	163627	30.41	0
1	164184	30.51	0
1	164741	30.61	0
1	165298	30.71	0
1	165855	30.81	0
1	166412	30.91	0
1	166977	31.01	0
1	167534	31.11	0
1	168091	31.21	0
1	168648	31.31	0
1	169205	31.41	0
1	169762	31.51	0
1	170319	31.61	0
1	170876	31.71	0
1	171433	31.81	0
1	171990	31.91	0
1	172555	32.01	0
1	173112	32.11	0
1	173669	32.21	0
1	174226	32.31	0
1	174783	32.41	0
1	175340	32.51	0
1	175897	32.61	0
1	176454	32.71	0
1	177011	32.81	0
1	177568	32.91	0
1	178133	33.01	0
1	178690	33.11	0
1	179247	33.21	0
1	179804	33.31	0
1	180361	33.41	0
1	180918	33.51	0
1	181475	33.61	0
1	182032	33.71	0
1	182589	33.81	0
1	183146	33.91	0
1	183711	34.01	0
1	184268	34.11	0
1	184825	34.21	0
1	185382	34.31	0
1	185939	34.41	0
1	186496	34.51	0
1	187053	34.61	0
1	187610	34.71	0
1	188167	34.81	0
1	188724	34.91	0
1	189289	35.01	0
1	189846	35.11	0
1	190403	35.21	0
1	190960	35.31	0
1	191517	35.41	0
1	192074	35.51	0
1	192631	35.61	0
1	193188	35.71	0
1	193745	35.81	0
1	194302	35.91	0
1	194867	36.01	0
1	195424	36.11	0
1	195981	36.21	0
1	196538	36.31	0
1	197095	36.41	0
1	197652	36.51	0
1	198209	36.61	0
1	198766	36.71	0
1	199323	36.81	0
1	199880	36.91	0
1	200445	37.01	0
1	201002	37.11	0
1	201559	37.21	0
1	202116	37.31	0
1	202673	37.41	0
1	203230	37.51	0
1	203787	37.61	0
1	204344	37.71	0
1	204901	37.81	0
1	205458	37.91	0
1	206023	38.01	0
1	206580	38.11	0
1	207137	38.21	0
1	207694	38.31	0
1	208251	38.41	0
1	208808	38.51	0
1	209365	38.61	0
1	209922	38.71	0
1	210479	38.81	0
1	211036	38.91	0
1	211601	39.01	0
1	212158	39.11	0
1	212715	39.21	0
1	213272	39.31	0
1	213829	39.41	0
1	214386	39.51	0
1	214943	39.61	0
1	215500	39.71	0
1	216057	39.81	0
1	216614	39.91	0
1	217179	40.01	0
0	232	1.11	-1
0	788	1.21	-1
0	1344	1.31	-1
0	1900	1.41	-1
0	2456	1.51	-1
0	3012	1.61	-1
0	3568	1.71	-1
0	4124	1.81	-1
0	4680	1.91	-1
0	5244	2.01	-1
0	5800	2.11	-1
0	6356	2.21	-1
0	6912	2.31	-1
0	7468	2.41	-1
0	8024	2.51	-1
0	8580	2.61	-1
0	9136	2.71	-1
0	9692	2.81	-1
0	10248	2.91	-1
0	10812	3.01	-1
0	11368	3.11	-1
0	11924	3.21	-1
0	12480	3.31	-1
0	13036	3.41	-1
0	13592	3.51	-1
0	14148	3.61	-1
0	14704	3.71	-1
0	15260	3.81	-1
0	15816	3.91	-1
0	16380	4.01	-1
0	16936	4.11	-1
0	17492	4.21	-1
0	18048	4.31	-1
0	18604	4.41	-1
0	19160	4.51	-1
0	19716	4.61	-1
0	20272	4.71	-1
0	20828	4.81	-1
0	21384	4.91	-1
0	21949	5.01	-1
0	22506	5.11	-1
0	23063	5.21	-1
0	23620	5.31	-1
0	24177	5.41	-1
0	24734	5.51	-1
0	25291	5.61	-1
0	25848	5.71	-1
0	26405	5.81	-1
0	26962	5.91	-1
0	27527	6.01	-1
0	28084	6.11	-1
0	28641	6.21	-1
0	29198	6.31	-1
0	29755	6.41	-1
0	30312	6.51	-1
0	30869	6.61	-1
0	31426	6.71	-1
0	31983	6.81	-1
0	32540	6.91	-1
0	33105	7.01	-1
0	33662	7.11	-1
0	34219	7.21	-1
0	34776	7.31	-1
0	35333	7.41	-1
0	35890	7.51	-1
0	36447	7.61	-1
0	37004	7.71	-1
0	37561	7.81	-1
0	38118	7.91	-1
0	38683	8.01	-1
0	39240	8.11	-1
0	39797	8.21	-1
0	40354	8.31	-1
0	40911	8.41	-1
0	41468	8.51	-1
0	42025	8.61	-1
0	42582	8.71	-1
0	43139	8.81	-1
0	43696	8.91	-1
0	44261	9.01	-1
0	44818	9.11	-1
0	45375	9.21	-1
0	45932	9.31	-1
0	46489	9.41	-1
0	47046	9.51	-1
0	47603	9.61	-1
0	48160	9.71	-1
0	48717	9.81	-1
0	49274	9.91	-1
0	49839	10.01	-1
0	50396	10.11	-1
0	50953	10.21	-1
0	51510	10.31	-1
0	52067	10.41	-1
0	52624	10.51	-1
0	53181	10.61	-1
0	53738	10.71	-1
0	54295	10.81	-1
0	54852	10.91	-1
0	55417	11.01	-1
0	55974	11.11	-1
0	56531	11.21	-1
0	57088	11.31	-1
0	57645	11.41	-1
0	58202	11.51	-1
0	58759	11.61	-1
0	59316	11.71	-1
0	59873	11.81	-1
0	60430	11.91	-1
0	60995	12.01	-1
0	61552	12.11	-1
0	62109	12.21	-1
0	62666	12.31	-1
0	63223	12.41	-1
0	63780	12.51	-1
0	64337	12.61	-1
0	64894	12.71	-1
0	65451	12.81	-1
0	66008	12.91	-1
0	66573	13.01	-1
0	67130	13.11	-1
0	67687	13.21	-1
0	68244	13.31	-1
0	68801	13.41	-1
0	69358	13.51	-1
0	69915	13.61	-1
0	70472	13.71	-1
0	71029	13.81	-1
0	71586	13.91	-1
0	72151	14.01	-1
0	72708	14.11	-1
0	73265	14.21	-1
0	73822	14.31	-1
0	74379	14.41	-1
0	74936	14.51	-1
0	75493	14.61	-1
0	76050	14.71	-1
0	76607	14.81	-1
0	77164	14.91	-1
0	77729	15.01	-1
0	78286	15.11	-1
0	78843	15.21	-1
0	79400	15.31	-1
0	79957	15.41	-1
0	80514	15.51	-1
0	81071	15.61	-1
0	81628	15.71	-1
0	82185	15.81	-1
0	82742	15.91	-1
0	83307	16.01	-1
0	83864	16.11	-1
0	84421	16.21	-1
0	84978	16.31	-1
0	85535	16.41	-1
0	86092	16.51	-1
0	86649	16.61	-1
0	87206	16.71	-1
0	87763	16.81	-1
0	88320	16.91	-1
0	88885	17.01	-1
0	89442	17.11	-1
0	89999	17.21	-1
0	90556	17.31	-1
0	91113	17.41	-1
0	91670	17.51	-1
0	92227	17.61	-1
0	92784	17.71	-1
0	93341	17.81	-1
0	93898	17.91	-1
0	94463	18.01	-1
0	95020	18.11	-1
0	95577	18.21	-1
0	96134	18.31	-1
0	96691	18.41	-1
0	97248	18.51	-1
0	97805	18.61	-1
0	98362	18.71	-1
0	98919	18.81	-1
0	99476	18.91	-1
0	100041	19.01	-1
0	100598	19.11	-1
0	101155	19.21	-1
0	101712	19.31	-1
0	102269	19.41	-1
0	102826	19.51	-1
0	103383	19.61	-1
0	103940	19.71	-1
0	104497	19.81	-1
0	105054	19.91	-1
0	105619	20.01	-1
0	106176	20.11	-1
0	106733	20.21	-1
0	107290	20.31	-1
0	107847	20.41	-1
0	108404	20.51	-1
0	108961	20.61	-1
0	109518	20.71	-1
0	110075	20.81	-1
0	110632	20.91	-1
0	111197	21.01	-1
0	111754	21.11	-1
0	112311	21.21	-1
0	112868	21.31	-1
0	113425	21.41	-1
0	113982	21.51	-1
0	114539	21.61	-1
0	115096	21.71	-1
0	115653	21.81	-1
0	116210	21.91	-1
0	116775	22.01	-1
0	117332	22.11	-1
0	117889	22.21	-1
0	118446	22.31	-1
0	119003	22.41	-1
0	119560	22.51	-1
0	120117	22.61	-1
0	120674	22.71	-1
0	121231	22.81	-1
0	121788	22.91	-1
0	122353	23.01	-1
0	122910	23.11	-1
0	123467	23.21	-1
0	124024	23.31	-1
0	124581	23.41	-1
0	125138	23.51	-1
0	125695	23.61	-1
0	126252	23.71	-1
0	126809	23.81	-1
0	127366	23.91	-1
0	127931	24.01	-1
0	128488	24.11	-1
0	129045	24.21	-1
0	129602	24.31	-1
0	130159	24.41	-1
0	130716	24.51	-1
0	131273	24.61	-1
0	131830	24.71	-1
0	132387	24.81	-1
0	132944	24.91	-1
0	133509	25.01	-1
0	134066	25.11	-1
0	134623	25.21	-1
0	135180	25.31	-1
0	135737	25.41	-1
0	136294	25.51	-1
0	136851	25.61	-1
0	137408	25.71	-1
0	137965	25.81	-1
0	138522	25.91	-1
0	139087	26.01	-1
0	139644	26.11	-1
0	140201	26.21	-1
0	140758	26.31	-1
0	141315	26.41	-1
0	141872	26.51	-1
0	142429	26.61	-1
0	142986	26.71	-1
0	143543	26.81	-1
0	144100	26.91	-1
0	144665	27.01	-1
0	145222	27.11	-1
0	145779	27.21	-1
0	146336	27.31	-1
0	146893	27.41	-1
0	147450	27.51	-1
0	148007	27.61	-1
0	148564	27.71	-1
0	149121	27.81	-1
0	149678	27.91	-1
0	150243	28.01	-1
0	150800	28.11	-1
0	151357	28.21	-1
0	151914	28.31	-1
0	152471	28.41	-1
0	153028	28.51	-1
0	153585	28.61	-1
0	154142	28.71	-1
0	154699	28.81	-1
0	155256	28.91	-1
0	155821	29.01	-1
0	156378	29.11	-1
0	156935	29.21	-1
0	157492	29.31	-1
0	158049	29.41	-1
0	158606	29.51	-1
0	159163	29.61	-1
0	159720	29.71	-1
0	160277	29.81	-1
0	160834	29.91	-1
0	161399	30.01	-1
0	161956	30.11	-1
0	162513	30.21	-1
0	163070	30.31	-1
0	163627	30.41	-1
0	164184	30.51	-1
0	164741	30.61	-1
0	165298	30.71	-1
0	165855	30.81	-1
0	166412	30.91	-1
0	166977	31.01	-1
0	167534	31.11	-1
0	168091	31.21	-1
0	168648	31.31	-1
0	169205	31.41	-1
0	169762	31.51	-1
0	170319	31.61	-1
0	170876	31.71	-1
0	171433	31.81	-1
0	171990	31.91	-1
0	172555	32.01	-1
0	173112	32.11	-1
0	173669	32.21	-1
0	174226	32.31	-1
0	174783	32.41	-1
0	175340	32.51	-1
0	175897	32.61	-1
0	176454	32.71	-1
0	177011	32.81	-1
0	177568	32.91	-1
0	178133	33.01	-1
0	178690	33.11	-1
0	179247	33.21	-1
0	179804	33.31	-1
0	180361	33.41	-1
0	180918	33.51	-1
0	181475	33.61	-1
0	182032	33.71	-1
0	182589	33.81	-1
0	183146	33.91	-1
0	183711	34.01	-1
0	184268	34.11	-1
0	184825	34.21	-1
0	185382	34.31	-1
0	185939	34.41	-1
0	186496	34.51	-1
0	187053	34.61	-1
0	187610	34.71	-1
0	188167	34.81	-1
0	188724	34.91	-1
0	189289	35.01	-1
0	189846	35.11	-1
0	190403	35.21	-1
0	190960	35.31	-1
0	191517	35.41	-1
0	192074	35.51	-1
0	192631	35.61	-1
0	193188	35.71	-1
0	193745	35.81	-1
0	194302	35.91	-1
0	194867	36.01	-1
0	195424	36.11	-1
0	195981	36.21	-1
0	196538	36.31	-1
0	197095	36.41	-1
0	197652	36.51	-1
0	198209	36.61	-1
0	198766	36.71	-1
0	199323	36.81	-1
0	199880	36.91	-1
0	200445	37.01	-1
0	201002	37.11	-1
0	201559	37.21	-1
0	202116	37.31	-1
0	202673	37.41	-1
0	203230	37.51	-1
0	203787	37.61	-1
0	204344	37.71	-1
0	204901	37.81	-1
0	205458	37.91	-1
0	206023	38.01	-1
0	206580	38.11	-1
0	207137	38.21	-1
0	207694	38.31	-1
0	208251	38.41	-1
0	208808	38.51	-1
0	209365	38.61	-1
0	209922	38.71	-1
0	210479	38.81	-1
0	211036	38.91	-1
0	211601	39.01	-1
0	212158	39.11	-1
0	212715	39.21	-1
0	213272	39.31	-1
0	213829	39.41	-1
0	214386	39.51	-1
0	214943	39.61	-1
0	215500	39.71	-1
0	216057	39.81	-1
0	216614	39.91	-1
0	217179	40.01	-1
2	232	1.11	0
2	788	1.21	0
2	1344	1.31	0
2	1900	1.41	0
2	2456	1.51	0
2	3012	1.61	0
2	3568	1.71	0
2	4124	1.81	0
2	4680	1.91	0
2	5244	2.01	0
2	5800	2.11	0
2	6356	2.21	0
2	6912	2.31	0
2	7468	2.41	0
2	8024	2.51	0
2	8580	2.61	0
2	9136	2.71	0
2	9692	2.81	0
2	10248	2.91	0
2	10812	3.01	0
2	11368	3.11	0
2	11924	3.21	0
2	12480	3.31	0
2	13036	3.41	0
2	13592	3.51	0
2	14148	3.61	0
2	14704	3.71	0
2	15260	3.81	0
2	15816	3.91	0
2	16380	4.01	0
2	16936	4.11	0
2	17492	4.21	0
2	18048	4.31	0
2	18604	4.41	0
2	19160	4.51	0
2	19716	4.61	0
2	20272	4.71	0
2	20828	4.81	0
2	21384	4.91	0
2	21949	5.01	0
2	22506	5.11	0
2	23063	5.21	0
2	23620	5.31	0
2	24177	5.41	0
2	24734	5.51	0
2	25291	5.61	0
2	25848	5.71	0
2	26405	5.81	0
2	26962	5.91	0
2	27527	6.01	0
2	28084	6.11	0
2	28641	6.21	0
2	29198	6.31	0
2	29755	6.41	0
2	30312	6.51	0
2	30869	6.61	0
2	31426	6.71	0
2	31983	6.81	0
2	32540	6.91	0
2	33105	7.01	0
2	33662	7.11	0
2	34219	7.21	0
2	34776	7.31	0
2	35333	7.41	0
2	35890	7.51	0
2	36447	7.61	0
2	37004	7.71	0
2	37561	7.81	0
2	38118	7.91	0
2	38683	8.01	0
2	39240	8.11	0
2	39797	8.21	0
2	40354	8.31	0
2	40911	8.41	0
2	41468	8.51	0
2	42025	8.61	0
2	42582	8.71	0
2	43139	8.81	0
2	43696	8.91	0
2	44261	9.01	0
2	44818	9.11	0
2	45375	9.21	0
2	45932	9.31	0
2	46489	9.41	0
2	47046	9.51	0
2	47603	9.61	0
2	48160	9.71	0
2	48717	9.81	0
2	49274	9.91	0
2	49839	10.01	0
2	50396	10.11	0
2	50953	10.21	0
2	51510	10.31	0
2	52067	10.41	0
2	52624	10.51	0
2	53181	10.61	0
2	53738	10.71	0
2	54295	10.81	0
2	54852	10.91	0
2	55417	11.01	0
2	55974	11.11	0
2	56531	11.21	0
2	57088	11.31	0
2	57645	11.41	0
2	58202	11.51	0
2	58759	11.61	0
2	59316	11.71	0
2	59873	11.81	0
2	60430	11.91	0
2	60995	12.01	0
2	61552	12.11	0
2	62109	12.21	0
2	62666	12.31	0
2	63223	12.41	0
2	63780	12.51	0
2	64337	12.61	0
2	64894	12.71	0
2	65451	12.81	0
2	66008	12.91	0
2	66573	13.01	0
2	67130	13.11	0
2	67687	13.21	0
2	68244	13.31	0
2	68801	13.41	0
2	69358	13.51	0
2	69915	13.61	0
2	70472	13.71	0
2	71029	13.81	0
2	71586	13.91	0
2	72151	14.01	0
2	72708	14.11	0
2	73265	14.21	0
2	73822	14.31	0
2	74379	14.41	0
2	74936	14.51	0
2	75493	14.61	0
2	76050	14.71	0
2	76607	14.81	0
2	77164	14.91	0
2	77729	15.01	0
2	78286	15.11	0
2	78843	15.21	0
2	79400	15.31	0
2	79957	15.41	0
2	80514	15.51	0
2	81071	15.61	0
2	81628	15.71	0
2	82185	15.81	0
2	82742	15.91	0
2	83307	16.01	0
2	83864	16.11	0
2	84421	16.21	0
2	84978	16.31	0
2	85535	16.41	0
2	86092	16.51	0
2	86649	16.61	0
2	87206	16.71	0
2	87763	16.81	0
2	88320	16.91	0
2	88885	17.01	0
2	89442	17.11	0
2	89999	17.21	0
2	90556	17.31	0
2	91113	17.41	0
2	91670	17.51	0
2	92227	17.61	0
2	92784	17.71	0
2	93341	17.81	0
2	93898	17.91	0
2	94463	18.01	0
2	95020	18.11	0
2	95577	18.21	0
2	96134	18.31	0
2	96691	18.41	0
2	97248	18.51	0
2	97805	18.61	0
2	98362	18.71	0
[...]
35	155869	29.069555905876	0.100000081927
35	156426	29.169555987623	0.100000081747
35	156983	29.269556069187	0.100000081564
35	157540	29.36955615056	0.100000081373
35	158097	29.469556231734	0.100000081174
35	158654	29.569556312708	0.100000080974
35	159211	29.669556393483	0.100000080775
35	159768	29.769556474062	0.100000080579
35	160325	29.869556554463	0.100000080401
35	160882	29.969556634711	0.100000080248
35	161447	30.069556714829	0.100000080118
35	162004	30.169556794855	0.100000080026
35	162561	30.269556874827	0.100000079972
35	163118	30.369556954778	0.100000079951
35	163675	30.469557034746	0.100000079968
35	164232	30.569557114759	0.100000080013
35	164789	30.669557194845	0.100000080086
35	165346	30.769557275023	0.100000080178
35	165903	30.869557355312	0.100000080289
35	166460	30.969557435728	0.100000080416
35	167025	31.069557516282	0.100000080554
35	167582	31.169557596987	0.100000080705
35	168139	31.269557677851	0.100000080864
35	168696	31.369557758885	0.100000081034
35	169253	31.469557840095	0.10000008121
35	169810	31.56955792149	0.100000081395
35	170367	31.669558003074	0.100000081584
35	170924	31.769558084856	0.100000081782
35	171481	31.86955816684	0.100000081984
35	172038	31.96955824903	0.10000008219
35	172603	32.069558331431	0.100000082401
35	173160	32.169558414038	0.100000082607
35	173717	32.269558496838	0.1000000828
35	174274	32.369558579802	0.100000082964
35	174831	32.469558662889	0.100000083087
35	175388	32.569558746032	0.100000083143
35	175945	32.669558829152	0.10000008312
35	176502	32.769558912144	0.100000082992
35	177059	32.869558994891	0.100000082747
35	177616	32.969559077256	0.100000082365
35	178181	33.069559159092	0.100000081836
35	178738	33.169559240246	0.100000081154
35	179295	33.269559320551	0.100000080305
35	179852	33.369559399834	0.100000079283
35	180409	33.469559477921	0.100000078087
35	180966	33.569559554629	0.100000076708
35	181523	33.669559629772	0.100000075143
35	182080	33.769559703166	0.100000073394
35	182637	33.869559774618	0.100000071452
35	183194	33.969559843937	0.100000069319
35	183759	34.069559910928	0.100000066991
35	184316	34.169559975397	0.100000064469
35	184873	34.269560037145	0.100000061748
35	185430	34.369560095977	0.100000058832
35	185987	34.469560151695	0.100000055718
35	186544	34.569560204105	0.10000005241
35	187101	34.669560253014	0.100000048909
35	187658	34.769560298241	0.100000045227
35	188215	34.869560339618	0.100000041377
35	188772	34.969560376992	0.100000037374
35	189337	35.06956041023	0.100000033238
35	189894	35.169560439216	0.100000028986
35	190451	35.269560463856	0.10000002464
35	191008	35.369560484069	0.100000020213
35	191565	35.469560499793	0.100000015724
35	192122	35.569560510973	0.10000001118
35	192679	35.669560517571	0.100000006598
35	193236	35.769560519552	0.100000001981
35	193793	35.869560516888	0.099999997336
35	194350	35.96956050956	0.099999992672
35	194915	36.069560497549	0.099999987989
35	195472	36.169560480846	0.099999983297
35	196029	36.26956045944	0.099999978594
35	196586	36.36956043333	0.09999997389
35	197143	36.469560402511	0.099999969181
35	197700	36.569560366985	0.099999964474
35	198257	36.669560326753	0.099999959768
35	198814	36.769560281823	0.09999995507
35	199371	36.869560232199	0.099999950376
35	199928	36.969560177892	0.099999945693
35	200493	37.069560118911	0.099999941019
35	201050	37.169560055261	0.09999993635
35	201607	37.26955998694	0.099999931679
35	202164	37.369559913933	0.099999926993
35	202721	37.469559836215	0.099999922282
35	203278	37.569559753741	0.099999917526
35	203835	37.66955966645	0.099999912709
35	204392	37.769559574263	0.099999907813
35	204949	37.869559477084	0.099999902821
35	205506	37.96955937481	0.099999897726
35	206071	38.069559267325	0.099999892515
35	206628	38.169559154505	0.09999988718
35	207185	38.269559036219	0.099999881714
35	207742	38.369558912336	0.099999876117
35	208299	38.469558782717	0.099999870381
35	208856	38.569558647223	0.099999864506
35	209413	38.669558505711	0.099999858488
35	209970	38.769558358038	0.099999852327
35	210527	38.869558204063	0.099999846025
35	211084	38.969558043642	0.099999839579
35	211649	39.069557876632	0.09999983299
35	212206	39.169557702888	0.099999826256
35	212763	39.269557522269	0.099999819381
35	213320	39.369557334632	0.099999812363
35	213877	39.469557139836	0.099999805204
35	214434	39.569556937743	0.099999797907
35	214991	39.669556728223	0.09999979048
35	215548	39.769556511151	0.099999782928
35	216105	39.869556286422	0.099999775271
35	216662	39.969556053944	0.099999767522
36	836	1.269559161495	0.10000008144
36	1392	1.369559242935	0.10000008144
36	1948	1.469559324375	0.10000008144
36	2504	1.569559405815	0.10000008144
36	3060	1.669559487255	0.10000008144
36	3616	1.769559568695	0.10000008144
36	4172	1.869559650135	0.10000008144
36	4728	1.969559731575	0.10000008144
36	5292	2.069559813015	0.10000008144
36	5848	2.169559894455	0.10000008144
36	6404	2.269559975895	0.10000008144
36	6960	2.369560057335	0.10000008144
36	7516	2.469560138775	0.10000008144
36	8072	2.569560220215	0.10000008144
36	8628	2.669560301655	0.10000008144
36	9184	2.769560383095	0.10000008144
36	9740	2.869560464535	0.10000008144
36	10296	2.969560545975	0.10000008144
36	10860	3.069560627415	0.10000008144
36	11416	3.169560708855	0.10000008144
36	11972	3.269560790295	0.10000008144
36	12528	3.369560871735	0.10000008144
36	13084	3.469560953175	0.10000008144
36	13640	3.569561034615	0.10000008144
36	14196	3.669561116055	0.10000008144
36	14752	3.769561197495	0.10000008144
36	15308	3.869561278935	0.10000008144
36	15864	3.969561360375	0.10000008144
36	16428	4.069561441815	0.10000008144
36	16984	4.169561523255	0.10000008144
36	17540	4.269561604695	0.10000008144
36	18096	4.369561686135	0.10000008144
36	18652	4.469561767575	0.10000008144
36	19208	4.569561849015	0.10000008144
36	19764	4.669561930455	0.10000008144
36	20320	4.769562011895	0.10000008144
36	20876	4.869562093335	0.10000008144
36	21432	4.969562174775	0.10000008144
36	21997	5.069562256215	0.10000008144
36	22554	5.169562337656	0.100000081441
36	23111	5.269562419098	0.100000081442
36	23668	5.369562500549	0.100000081451
36	24225	5.469562582022	0.100000081473
36	24782	5.56956266353	0.100000081508
36	25339	5.669562745099	0.100000081569
36	25896	5.769562826751	0.100000081652
36	26453	5.869562908513	0.100000081762
36	27010	5.969562990403	0.10000008189
36	27575	6.069563072438	0.100000082035
36	28132	6.169563154636	0.100000082198
36	28689	6.269563237008	0.100000082372
36	29246	6.369563319565	0.100000082557
36	29803	6.469563402314	0.100000082749
36	30360	6.569563485267	0.100000082953
36	30917	6.669563568427	0.10000008316
36	31474	6.769563651799	0.100000083372
36	32031	6.869563735385	0.100000083586
36	32588	6.969563819177	0.100000083792
36	33153	7.069563903165	0.100000083988
36	33710	7.169563987331	0.100000084166
36	34267	7.269564071652	0.100000084321
36	34824	7.369564156101	0.100000084449
36	35381	7.469564240648	0.100000084547
36	35938	7.569564325254	0.100000084606
36	36495	7.669564409887	0.100000084633
36	37052	7.769564494517	0.10000008463
36	37609	7.86956457911	0.100000084593
36	38166	7.969564663646	0.100000084536
36	38731	8.069564748102	0.100000084456
36	39288	8.169564832461	0.100000084359
36	39845	8.269564916709	0.100000084248
36	40402	8.369565000831	0.100000084122
36	40959	8.469565084815	0.100000083984
36	41516	8.569565168653	0.100000083838
36	42073	8.669565252332	0.100000083679
36	42630	8.769565335848	0.100000083516
36	43187	8.86956541919	0.100000083342
36	43744	8.969565502348	0.100000083158
36	44309	9.069565585319	0.100000082971
36	44866	9.169565668094	0.100000082775
36	45423	9.269565750669	0.100000082575
36	45980	9.369565833035	0.100000082366
36	46537	9.469565915188	0.100000082153
36	47094	9.569565997121	0.100000081933
36	47651	9.66956607883	0.100000081709
36	48208	9.769566160317	0.100000081487
36	48765	9.869566241591	0.100000081274
36	49322	9.96956632267	0.100000081079
36	49887	10.069566403577	0.100000080907
36	50444	10.169566484345	0.100000080768
36	51001	10.269566565009	0.100000080664
36	51558	10.369566645606	0.100000080597
36	52115	10.469566726175	0.100000080569
36	52672	10.56956680675	0.100000080575
36	53229	10.669566887358	0.100000080608
36	53786	10.769566968025	0.100000080667
36	54343	10.86955404877	0.099987080745
36	54900	10.969554129612	0.100000080842
36	55465	11.069554210565	0.100000080953
36	56022	11.169554291644	0.100000081079
36	56579	11.269554372861	0.100000081217
36	57136	11.369554454225	0.100000081364
36	57693	11.469554535746	0.100000081521
36	58250	11.569554617432	0.100000081686
36	58807	11.669554699291	0.100000081859
36	59364	11.769554781328	0.100000082037
36	59921	11.869554863552	0.100000082224
36	60478	11.969554945965	0.100000082413
36	61043	12.06955502857	0.100000082605
36	61600	12.169555111367	0.100000082797
36	62157	12.269555194346	0.100000082979
36	62714	12.369555277491	0.100000083145
36	63271	12.469555360777	0.100000083286
36	63828	12.569555444179	0.100000083402
36	64385	12.66955552766	0.100000083481
36	64942	12.769555611183	0.100000083523
36	65499	12.869555694713	0.10000008353
36	66056	12.969555778219	0.100000083506
36	66621	13.069555861671	0.100000083452
36	67178	13.169555945045	0.100000083374
36	67735	13.269556028324	0.100000083279
36	68292	13.369556111487	0.100000083163
36	68849	13.469556194522	0.100000083035
36	69406	13.569556277416	0.100000082894
36	69963	13.669556360158	0.100000082742
36	70520	13.769556442738	0.10000008258
36	71077	13.869556525147	0.100000082409
36	71634	13.969556607376	0.100000082229
36	72199	14.06955668942	0.100000082044
36	72756	14.16955677127	0.10000008185
36	73313	14.269556852921	0.100000081651
36	73870	14.369556934364	0.100000081443
36	74427	14.469557015596	0.100000081232
36	74984	14.569557096612	0.100000081016
36	75541	14.66955717741	0.100000080798
36	76098	14.769557258001	0.100000080591
36	76655	14.869557338394	0.100000080393
36	77212	14.969557418615	0.100000080221
36	77777	15.06955749869	0.100000080075
36	78334	15.169557578652	0.100000079962
36	78891	15.269557658541	0.100000079889
36	79448	15.36955773839	0.100000079849
36	80005	15.46955781824	0.10000007985
36	80562	15.569557898118	0.100000079878
36	81119	15.669557978051	0.100000079933
36	81676	15.76955805806	0.100000080009
36	82233	15.869558138165	0.100000080105
36	82790	15.969558218381	0.100000080216
36	83355	16.069558298723	0.100000080342
36	83912	16.169558379203	0.10000008048
36	84469	16.269558459832	0.100000080629
36	85026	16.369558540619	0.100000080787
36	85583	16.469558621572	0.100000080953
36	86140	16.569558702698	0.100000081126
36	86697	16.669558784003	0.100000081305
36	87254	16.769558865495	0.100000081492
36	87811	16.869558947177	0.100000081682
36	88368	16.969559029058	0.100000081881
36	88933	17.069559111139	0.100000082081
36	89490	17.169559193421	0.100000082282
36	90047	17.269559275893	0.100000082472
36	90604	17.369559358543	0.10000008265
36	91161	17.469559441347	0.100000082804
36	91718	17.569559524276	0.100000082929
36	92275	17.669559607299	0.100000083023
36	92832	17.769559690379	0.10000008308
36	93389	17.869559773479	0.1000000831
36	93946	17.969559856565	0.100000083086
36	94511	18.069559939607	0.100000083042
36	95068	18.169560022583	0.100000082976
36	95625	18.26956010547	0.100000082887
36	96182	18.369560188252	0.100000082782
36	96739	18.469560270912	0.10000008266
36	97296	18.56956035344	0.100000082528
36	97853	18.669560435824	0.100000082384
36	98410	18.769560518054	0.10000008223
36	98967	18.86956060012	0.100000082066
36	99524	18.969560682016	0.100000081896
36	100089	19.069560763734	0.100000081718
36	100646	19.169560845264	0.10000008153
36	101203	19.269560926602	0.100000081338
36	101760	19.36956100774	0.100000081138
36	102317	19.469561088675	0.100000080935
36	102874	19.569561169402	0.100000080727
36	103431	19.669561249921	0.100000080519
36	103988	19.769561330239	0.100000080318
36	104545	19.86956141037	0.100000080131
36	105102	19.969561490335	0.100000079965
36	105667	20.069561570167	0.100000079832
36	106224	20.169561649898	0.100000079731
36	106781	20.269561729562	0.100000079664
36	107338	20.369561809201	0.100000079639
36	107895	20.469561888849	0.100000079648
36	108452	20.569561968535	0.100000079686
36	109009	20.669562048286	0.100000079751
36	109566	20.769562128122	0.100000079836
36	110123	20.869562208065	0.100000079943
36	110680	20.969562288126	0.100000080061
36	111245	21.06956236832	0.100000080194
36	111802	21.169562448661	0.100000080341
36	112359	21.269562529156	0.100000080495
36	112916	21.369562609813	0.100000080657
36	113473	21.469562690644	0.100000080831
36	114030	21.569562771654	0.10000008101
36	114587	21.66956285285	0.100000081196
36	115144	21.769562934236	0.100000081386
36	115701	21.869563015822	0.100000081586
36	116258	21.96956309761	0.100000081788
36	116823	22.069563179603	0.100000081993
36	117380	22.169563261801	0.100000082198
36	117937	22.269563344196	0.100000082395
36	118494	22.369563426774	0.100000082578
36	119051	22.469563509513	0.100000082739
36	119608	22.569563592383	0.10000008287
36	120165	22.669563675354	0.100000082971
36	120722	22.769563758388	0.100000083034
36	121279	22.869563841447	0.100000083059
36	121836	22.969563924499	0.100000083052
36	122401	23.069564007512	0.100000083013
36	122958	23.169564090464	0.100000082952
36	123515	23.269564173333	0.100000082869
36	124072	23.369564256102	0.100000082769
36	124629	23.469564338758	0.100000082656
36	125186	23.569564421284	0.100000082526
36	125743	23.669564503672	0.100000082388
36	126300	23.769564585911	0.100000082239
36	126857	23.869564667993	0.100000082082
36	127414	23.969564749907	0.100000081914
36	127979	24.06956483165	0.100000081743
36	128536	24.169564913212	0.100000081562
36	129093	24.269564994585	0.100000081373
36	129650	24.369565075767	0.100000081182
36	130207	24.469565156748	0.100000080981
36	130764	24.569565237526	0.100000080778
36	131321	24.669565318102	0.100000080576
36	131878	24.769565398481	0.100000080379
36	132435	24.86956547868	0.100000080199
36	132992	24.969565558719	0.100000080039
36	133557	25.069565638628	0.100000079909
36	134114	25.169565718444	0.100000079816
36	134671	25.2695657982	0.100000079756
36	135228	25.369565877934	0.100000079734
36	135785	25.469565957683	0.100000079749
36	136342	25.569566037475	0.100000079792
36	136899	25.669566117335	0.10000007986
36	137456	25.769566197287	0.100000079952
36	138013	25.869566277347	0.10000008006
36	138570	25.969566357529	0.100000080182
36	139135	26.069566437849	0.10000008032
36	139692	26.169566518317	0.100000080468
36	140249	26.269566598943	0.100000080626
36	140806	26.369566679735	0.100000080792
36	141363	26.469566760701	0.100000080966
36	141920	26.56956684185	0.100000081149
36	142477	26.669566923186	0.100000081336
36	143034	26.769567004715	0.100000081529
36	143591	26.869554086445	0.09998708173
36	144148	26.969554168377	0.100000081932
36	144713	27.069554250518	0.100000082141
36	145270	27.169554332865	0.100000082347
36	145827	27.269554415411	0.100000082546
36	146384	27.369554498141	0.10000008273
36	146941	27.469554581033	0.100000082892
36	147498	27.569554664059	0.100000083026
36	148055	27.669554747186	0.100000083127
36	148612	27.769554830378	0.100000083192
36	149169	27.869554913596	0.100000083218
36	149726	27.96955499681	0.100000083214
36	150291	28.069555079986	0.100000083176
36	150848	28.169555163104	0.100000083118
36	151405	28.269555246141	0.100000083037
36	151962	28.369555329082	0.100000082941
36	152519	28.469555411907	0.100000082825
36	153076	28.569555494609	0.100000082702
36	153633	28.669555577173	0.100000082564
36	154190	28.76955565959	0.100000082417
36	154747	28.869555741852	0.100000082262
36	155304	28.969555823949	0.100000082097
36	155869	29.069555905876	0.100000081927
36	156426	29.169555987623	0.100000081747
36	156983	29.269556069187	0.100000081564
36	157540	29.36955615056	0.100000081373
36	158097	29.469556231734	0.100000081174
36	158654	29.569556312708	0.100000080974
36	159211	29.669556393483	0.100000080775
36	159768	29.769556474062	0.100000080579
36	160325	29.869556554463	0.100000080401
36	160882	29.969556634711	0.100000080248
36	161447	30.069556714829	0.100000080118
36	162004	30.169556794855	0.100000080026
36	162561	30.269556874827	0.100000079972
36	163118	30.369556954778	0.100000079951
36	163675	30.469557034746	0.100000079968
36	164232	30.569557114759	0.100000080013
36	164789	30.669557194845	0.100000080086
36	165346	30.769557275023	0.100000080178
36	165903	30.869557355312	0.100000080289
36	166460	30.969557435728	0.100000080416
36	167025	31.069557516282	0.100000080554
36	167582	31.169557596987	0.100000080705
36	168139	31.269557677851	0.100000080864
36	168696	31.369557758885	0.100000081034
36	169253	31.469557840095	0.10000008121
36	169810	31.56955792149	0.100000081395
36	170367	31.669558003074	0.100000081584
36	170924	31.769558084856	0.100000081782
36	171481	31.86955816684	0.100000081984
36	172038	31.96955824903	0.10000008219
36	172603	32.069558331431	0.100000082401
36	173160	32.169558414038	0.100000082607
36	173717	32.269558496838	0.1000000828
36	174274	32.369558579802	0.100000082964
36	174831	32.469558662889	0.100000083087
36	175388	32.569558746032	0.100000083143
36	175945	32.669558829152	0.10000008312
36	176502	32.769558912144	0.100000082992
36	177059	32.869558994891	0.100000082747
36	177616	32.969559077256	0.100000082365
36	178181	33.069559159092	0.100000081836
36	178738	33.169559240246	0.100000081154
36	179295	33.269559320551	0.100000080305
36	179852	33.369559399834	0.100000079283
36	180409	33.469559477921	0.100000078087
36	180966	33.569559554629	0.100000076708
36	181523	33.669559629772	0.100000075143
36	182080	33.769559703166	0.100000073394
36	182637	33.869559774618	0.100000071452
36	183194	33.969559843937	0.100000069319
36	183759	34.069559910928	0.100000066991
36	184316	34.169559975397	0.100000064469
36	184873	34.269560037145	0.100000061748
36	185430	34.369560095977	0.100000058832
36	185987	34.469560151695	0.100000055718
36	186544	34.569560204105	0.10000005241
36	187101	34.669560253014	0.100000048909
36	187658	34.769560298241	0.100000045227
36	188215	34.869560339618	0.100000041377
36	188772	34.969560376992	0.100000037374
36	189337	35.06956041023	0.100000033238
36	189894	35.169560439216	0.100000028986
36	190451	35.269560463856	0.10000002464
36	191008	35.369560484069	0.100000020213
36	191565	35.469560499793	0.100000015724
36	192122	35.569560510973	0.10000001118
36	192679	35.669560517571	0.100000006598
36	193236	35.769560519552	0.100000001981
36	193793	35.869560516888	0.099999997336
36	194350	35.96956050956	0.099999992672
36	194915	36.069560497549	0.099999987989
36	195472	36.169560480846	0.099999983297
36	196029	36.26956045944	0.099999978594
36	196586	36.36956043333	0.09999997389
36	197143	36.469560402511	0.099999969181
36	197700	36.569560366985	0.099999964474
36	198257	36.669560326753	0.099999959768
36	198814	36.769560281823	0.09999995507
36	199371	36.869560232199	0.099999950376
36	199928	36.969560177892	0.099999945693
36	200493	37.069560118911	0.099999941019
36	201050	37.169560055261	0.09999993635
36	201607	37.26955998694	0.099999931679
36	202164	37.369559913933	0.099999926993
36	202721	37.469559836215	0.099999922282
36	203278	37.569559753741	0.099999917526
36	203835	37.66955966645	0.099999912709
36	204392	37.769559574263	0.099999907813
36	204949	37.869559477084	0.099999902821
36	205506	37.96955937481	0.099999897726
36	206071	38.069559267325	0.099999892515
36	206628	38.169559154505	0.09999988718
36	207185	38.269559036219	0.099999881714
36	207742	38.369558912336	0.099999876117
36	208299	38.469558782717	0.099999870381
36	208856	38.569558647223	0.099999864506
36	209413	38.669558505711	0.099999858488
36	209970	38.769558358038	0.099999852327
36	210527	38.869558204063	0.099999846025
36	211084	38.969558043642	0.099999839579
36	211649	39.069557876632	0.09999983299
36	212206	39.169557702888	0.099999826256
36	212763	39.269557522269	0.099999819381
36	213320	39.369557334632	0.099999812363
36	213877	39.469557139836	0.099999805204
36	214434	39.569556937743	0.099999797907
36	214991	39.669556728223	0.09999979048
36	215548	39.769556511151	0.099999782928
36	216105	39.869556286422	0.099999775271
36	216662	39.969556053944	0.099999767522
