version 2
run SinusoidalJammingDetail-108-20170801-16:17:30-48532
attr CACCSpacing 11
attr attackAcc -30
attr attackPos 7
attr attackSpeed 150
attr attackStart 31.5
attr attacker 1
attr beaconInterval 0.1
attr configname SinusoidalJammingDetail
attr controller 1
attr datetime 20170801-16:17:30
attr experiment SinusoidalJammingDetail
attr fakeAcc "(1 == 4)"
attr fakePos "(1 == 2)"
attr fakeSpeed "(1 == 3)"
attr inifile omnetpp_108.ini
attr iterationvars "$leaderSpeed=50, $controller=1, $CACCSpacing=11, $sController=\"CACC\", $attacker=1, $attackStart=31.5, $attackSpeed=150, $attackPos=7, $attackAcc=-30, $0=11, $1=0, $nCars=8, $platoonSize=8, $nLanes=1, $beaconInterval=0.1, $priority=2, $packetSize=200, $ploegH=0.5, $leaderHeadway=1.2, $fakeSpeed=(1 == 3), $fakeAcc=(1 == 4), $fakePos=(1 == 2)"
attr iterationvarsf leaderSpeed=50,controller=1,CACCSpacing=11,sController=CACC,attacker=1,attackStart=31.5,attackSpeed=150,attackPos=7,attackAcc=-30,11,0,nCars=8,platoonSize=8,nLanes=1,beaconInterval=0.1,priority=2,packetSize=200,ploegH=0.5,leaderHeadway=1.2,fakeSpeed=(1_==_3),fakeAcc=(1_==_4),fakePos=(1_==_2)-
attr leaderHeadway 1.2
attr leaderSpeed 50
attr measurement "$leaderSpeed=50, $controller=1, $CACCSpacing=11, $sController=\"CACC\", $attacker=1, $attackStart=31.5, $attackSpeed=150, $attackPos=7, $attackAcc=-30, $0=11, $1=0, $nCars=8, $platoonSize=8, $nLanes=1, $beaconInterval=0.1, $priority=2, $packetSize=200, $ploegH=0.5, $leaderHeadway=1.2, $fakeSpeed=(1 == 3), $fakeAcc=(1 == 4), $fakePos=(1 == 2)"
attr nCars 8
attr nLanes 1
attr network scenario
attr packetSize 200
attr platoonSize 8
attr ploegH 0.5
attr priority 2
attr processid 48532
attr repetition 3
attr replication #3
attr resultdir results
attr runnumber 108
attr sController "\"CACC\""
attr seedset 3
param **.coreDebug false
param **.debug false
param **.headway 0.1s
param **.numberOfCars 8
param **.numberOfCarsPerPlatoon 8
param **.numberOfLanes 1
param **.numericController 1
param **.traffic.nCars 8
param **.traffic.nLanes 1
param **.traffic.platoonInsertDistance 11m
param **.traffic.platoonInsertHeadway 0s
param **.traffic.platoonInsertSpeed 50kmph
param **.traffic.platoonInsertTime "1 s"
param **.traffic.platoonLeaderHeadway 1.2s
param **.traffic.platoonSize 8
param **.traffic.platooningVType "\"vtypeauto\""
param **.traffic_type "\"PlatoonsTrafficManager\""
param *.**.nic.mac1609_4.bitrate 6Mbps
param *.**.nic.mac1609_4.txPower 100mW
param *.**.nic.mac1609_4.useServiceChannel false
param *.**.nic.phy80211p.analogueModels "xmldoc(\"config.xml\")"
param *.**.nic.phy80211p.decider "xmldoc(\"config.xml\")"
param *.**.nic.phy80211p.maxTXPower 100mW
param *.**.nic.phy80211p.sensitivity -94dBm
param *.**.nic.phy80211p.thermalNoise -95dBm
param *.**.nic.phy80211p.usePropagationDelay true
param *.**.nic.phy80211p.useThermalNoise true
param *.annotations.draw false
param *.connectionManager.alpha 2.0
param *.connectionManager.carrierFrequency "5.890e9 Hz"
param *.connectionManager.pMax 100mW
param *.connectionManager.sat -94dBm
param *.connectionManager.sendDirect true
param *.manager.autoShutdown true
param *.manager.commandLine "\"sumo --remote-port $port --seed $seed --configuration-file $configFile\""
param *.manager.configFile "\"./sumocfg/freeway.sumo.cfg\""
param *.manager.host "\"localhost\""
param *.manager.margin 25
param *.manager.moduleDisplayString "\"\""
param *.manager.moduleName "\"node\""
param *.manager.moduleType "\"Car\""
param *.manager.updateInterval 0.01s
param *.node[*].appl.attackStart 31.5s
param *.node[*].appl.attackerType 1
param *.node[*].appl.simulationDuration "60 s"
param *.node[*].appl_type "\"SimplePlatooningApp\""
param *.node[*].helper.nCars 8
param *.node[*].helper.nLanes 1
param *.node[*].helper.platoonSize 8
param *.node[*].helper_type "\"PositionHelper\""
param *.node[*].mobility.x 0
param *.node[*].mobility.y 0
param *.node[*].mobility.z 1.895
param *.node[*].prot.attackStart 31.5s
param *.node[*].prot.attackerType 1
param *.node[*].prot.attackingNode 3
param *.node[*].prot.beaconingInterval 0.1s
param *.node[*].prot.fakeAcc "(1 == 4)"
param *.node[*].prot.fakePos "(1 == 2)"
param *.node[*].prot.fakeSpeed "(1 == 3)"
param *.node[*].prot.maliciousAcc "-30 mpss"
param *.node[*].prot.maliciousSpeed 150kmph
param *.node[*].prot.packetSize 200
param *.node[*].prot.priority 2
param *.node[*].prot.shiftX "7 m"
param *.node[*].prot.useControllerAcceleration true
param *.node[*].protocol_type "\"SimplePlatooningBeaconing\""
param *.node[*].scenario.accHeadway 0.1s
param *.node[*].scenario.caccC1 0.5
param *.node[*].scenario.caccOmegaN "0.2 Hz"
param *.node[*].scenario.caccSpacing 11m
param *.node[*].scenario.caccXi 1
param *.node[*].scenario.controller "\"CACC\""
param *.node[*].scenario.engineTau "0.5 s"
param *.node[*].scenario.leaderHeadway 1.2s
param *.node[*].scenario.leaderOscillationFrequency "0.2 Hz"
param *.node[*].scenario.leaderSpeed 50kmph
param *.node[*].scenario.oscillationAmplitude "10 kmph"
param *.node[*].scenario.ploegH 0.5s
param *.node[*].scenario.ploegKd 0.7
param *.node[*].scenario.ploegKp 0.2
param *.node[*].scenario.startOscillating "5 s"
param *.node[*].scenario.useRealisticEngine false
param *.node[*].scenario_type "\"SinusoidalScenario\""
param *.node[*].unicast.packetLossRate 0
param *.obstacles.debug false
param *.playgroundSizeX 65000m
param *.playgroundSizeY 25000m
param *.playgroundSizeZ 50m
param *.world.use2D false
param *.world.useTorus false

vector 0  scenario.node[0].appl  distance  ETV
vector 1  scenario.node[0].appl  relativeSpeed  ETV
vector 2  scenario.node[0].appl  nodeId  ETV
vector 6  scenario.node[0].appl  acceleration  ETV
vector 7  scenario.node[0].appl  controllerAcceleration  ETV
vector 3  scenario.node[0].appl  speed  ETV
vector 4  scenario.node[0].appl  posx  ETV
vector 5  scenario.node[0].appl  posy  ETV
vector 22  scenario.node[1].appl  distance  ETV
vector 23  scenario.node[1].appl  relativeSpeed  ETV
vector 24  scenario.node[1].appl  nodeId  ETV
vector 28  scenario.node[1].appl  acceleration  ETV
vector 29  scenario.node[1].appl  controllerAcceleration  ETV
vector 25  scenario.node[1].appl  speed  ETV
vector 26  scenario.node[1].appl  posx  ETV
vector 27  scenario.node[1].appl  posy  ETV
vector 44  scenario.node[2].appl  distance  ETV
vector 45  scenario.node[2].appl  relativeSpeed  ETV
vector 46  scenario.node[2].appl  nodeId  ETV
vector 50  scenario.node[2].appl  acceleration  ETV
vector 51  scenario.node[2].appl  controllerAcceleration  ETV
vector 47  scenario.node[2].appl  speed  ETV
vector 48  scenario.node[2].appl  posx  ETV
vector 49  scenario.node[2].appl  posy  ETV
vector 66  scenario.node[3].appl  distance  ETV
vector 67  scenario.node[3].appl  relativeSpeed  ETV
vector 68  scenario.node[3].appl  nodeId  ETV
vector 72  scenario.node[3].appl  acceleration  ETV
vector 73  scenario.node[3].appl  controllerAcceleration  ETV
vector 69  scenario.node[3].appl  speed  ETV
vector 70  scenario.node[3].appl  posx  ETV
vector 71  scenario.node[3].appl  posy  ETV
vector 88  scenario.node[4].appl  distance  ETV
vector 89  scenario.node[4].appl  relativeSpeed  ETV
vector 90  scenario.node[4].appl  nodeId  ETV
vector 94  scenario.node[4].appl  acceleration  ETV
vector 95  scenario.node[4].appl  controllerAcceleration  ETV
vector 91  scenario.node[4].appl  speed  ETV
vector 92  scenario.node[4].appl  posx  ETV
vector 93  scenario.node[4].appl  posy  ETV
vector 110  scenario.node[5].appl  distance  ETV
vector 111  scenario.node[5].appl  relativeSpeed  ETV
vector 112  scenario.node[5].appl  nodeId  ETV
vector 116  scenario.node[5].appl  acceleration  ETV
vector 117  scenario.node[5].appl  controllerAcceleration  ETV
vector 113  scenario.node[5].appl  speed  ETV
vector 114  scenario.node[5].appl  posx  ETV
vector 115  scenario.node[5].appl  posy  ETV
vector 132  scenario.node[6].appl  distance  ETV
vector 133  scenario.node[6].appl  relativeSpeed  ETV
vector 134  scenario.node[6].appl  nodeId  ETV
vector 138  scenario.node[6].appl  acceleration  ETV
vector 139  scenario.node[6].appl  controllerAcceleration  ETV
vector 135  scenario.node[6].appl  speed  ETV
vector 136  scenario.node[6].appl  posx  ETV
vector 137  scenario.node[6].appl  posy  ETV
vector 154  scenario.node[7].appl  distance  ETV
vector 155  scenario.node[7].appl  relativeSpeed  ETV
vector 156  scenario.node[7].appl  nodeId  ETV
vector 160  scenario.node[7].appl  acceleration  ETV
vector 161  scenario.node[7].appl  controllerAcceleration  ETV
vector 157  scenario.node[7].appl  speed  ETV
vector 158  scenario.node[7].appl  posx  ETV
vector 159  scenario.node[7].appl  posy  ETV
vector 35  scenario.node[1].prot  leaderDelay  ETV
vector 33  scenario.node[1].prot  leaderDelayId  ETV
vector 36  scenario.node[1].prot  frontDelay  ETV
vector 34  scenario.node[1].prot  frontDelayId  ETV
vector 57  scenario.node[2].prot  leaderDelay  ETV
vector 55  scenario.node[2].prot  leaderDelayId  ETV
vector 79  scenario.node[3].prot  leaderDelay  ETV
vector 77  scenario.node[3].prot  leaderDelayId  ETV
vector 101  scenario.node[4].prot  leaderDelay  ETV
vector 99  scenario.node[4].prot  leaderDelayId  ETV
vector 123  scenario.node[5].prot  leaderDelay  ETV
vector 121  scenario.node[5].prot  leaderDelayId  ETV
vector 145  scenario.node[6].prot  leaderDelay  ETV
vector 143  scenario.node[6].prot  leaderDelayId  ETV
vector 167  scenario.node[7].prot  leaderDelay  ETV
vector 165  scenario.node[7].prot  leaderDelayId  ETV
vector 168  scenario.node[7].prot  frontDelay  ETV
vector 166  scenario.node[7].prot  frontDelayId  ETV
vector 58  scenario.node[2].prot  frontDelay  ETV
vector 56  scenario.node[2].prot  frontDelayId  ETV
vector 124  scenario.node[5].prot  frontDelay  ETV
vector 122  scenario.node[5].prot  frontDelayId  ETV
vector 80  scenario.node[3].prot  frontDelay  ETV
vector 78  scenario.node[3].prot  frontDelayId  ETV
vector 146  scenario.node[6].prot  frontDelay  ETV
vector 144  scenario.node[6].prot  frontDelayId  ETV
vector 102  scenario.node[4].prot  frontDelay  ETV
vector 100  scenario.node[4].prot  frontDelayId  ETV
vector 8  scenario.node[0].prot  nodeId  ETV
vector 9  scenario.node[0].prot  busyTime  ETV
vector 10  scenario.node[0].prot  collisions  ETV
vector 30  scenario.node[1].prot  nodeId  ETV
vector 31  scenario.node[1].prot  busyTime  ETV
vector 32  scenario.node[1].prot  collisions  ETV
vector 52  scenario.node[2].prot  nodeId  ETV
vector 53  scenario.node[2].prot  busyTime  ETV
vector 54  scenario.node[2].prot  collisions  ETV
vector 74  scenario.node[3].prot  nodeId  ETV
vector 75  scenario.node[3].prot  busyTime  ETV
vector 76  scenario.node[3].prot  collisions  ETV
vector 96  scenario.node[4].prot  nodeId  ETV
vector 97  scenario.node[4].prot  busyTime  ETV
vector 98  scenario.node[4].prot  collisions  ETV
vector 118  scenario.node[5].prot  nodeId  ETV
vector 119  scenario.node[5].prot  busyTime  ETV
vector 120  scenario.node[5].prot  collisions  ETV
vector 140  scenario.node[6].prot  nodeId  ETV
vector 141  scenario.node[6].prot  busyTime  ETV
vector 142  scenario.node[6].prot  collisions  ETV
vector 162  scenario.node[7].prot  nodeId  ETV
vector 163  scenario.node[7].prot  busyTime  ETV
vector 164  scenario.node[7].prot  collisions  ETV
7	232	1.11	-4.215365603244e-07
7	788	1.21	-4.123519392607e-07
7	1344	1.31	-3.9742146640265e-07
7	1900	1.41	-3.7804518804307e-07
7	2456	1.51	-3.5536931619617e-07
7	3012	1.61	-3.3039333047213e-07
7	3568	1.71	-3.039784495229e-07
7	4124	1.81	-2.7685694803381e-07
7	4680	1.91	-2.4964219491608e-07
7	5244	2.01	-2.2283905920517e-07
7	5800	2.11	-1.9685434082817e-07
7	6356	2.21	-1.7200705926257e-07
7	6912	2.31	-1.4853853436136e-07
7	7468	2.41	-1.2662199289082e-07
7	8024	2.51	-1.0637172032091e-07
7	8580	2.61	-8.7851576680009e-08
7	9136	2.71	-7.1082913777332e-08
7	9692	2.81	-5.6051822738823e-08
7	10248	2.91	-4.2715759818179e-08
7	10812	3.01	-3.1009408374416e-08
7	11368	3.11	-2.0849929782685e-08
7	11924	3.21	-1.2141658345399e-08
7	12480	3.31	-4.7800785551999e-09
7	13036	3.41	1.3447181146375e-09
7	13592	3.51	6.3450702469936e-09
7	14148	3.61	1.0333288003039e-08
7	14704	3.71	1.3419677813431e-08
7	15260	3.81	1.5710899248234e-08
7	15816	3.91	1.7308703803565e-08
7	16380	4.01	1.830899876154e-08
7	16936	4.11	1.8801173951033e-08
7	17492	4.21	1.8867702067382e-08
7	18048	4.31	1.8583865113442e-08
7	18604	4.41	1.8017717096086e-08
7	19160	4.51	1.723012310606e-08
7	19716	4.61	1.6274986691656e-08
7	20272	4.71	1.5199535852162e-08
7	20828	4.81	1.4044672980162e-08
7	21384	4.91	1.2845363883685e-08
7	21949	5.01	1.1631094309905e-08
7	22506	5.11	0.3481478814383
7	23063	5.21	0.68726936236521
7	23620	5.31	1.0064706229906
7	24177	5.41	1.2963311628453
7	24734	5.51	1.5
7	25291	5.61	1.5
7	25848	5.71	1.5
7	26405	5.81	1.5
7	26962	5.91	1.5
7	27527	6.01	1.5
7	28084	6.11	1.5
7	28641	6.21	1.5
7	29198	6.31	1.5
7	29755	6.41	1.5
7	30312	6.51	1.4919234130517
7	30869	6.61	1.2264993275909
7	31426	6.71	0.92305383931647
7	31983	6.81	0.58908101929403
7	32540	6.91	0.23235621605629
7	33105	7.01	-0.13919559804423
7	33662	7.11	-0.51762846559318
7	34219	7.21	-0.89509993922417
7	34776	7.31	-1.2639902882471
7	35333	7.41	-1.5
7	35890	7.51	-1.5
7	36447	7.61	-1.5
7	37004	7.71	-1.5
7	37561	7.81	-1.5
7	38118	7.91	-1.5
7	38683	8.01	-1.5
7	39240	8.11	-1.5
7	39797	8.21	-1.5
7	40354	8.31	-1.5
7	40911	8.41	-1.5
7	41468	8.51	-1.5
7	42025	8.61	-1.5
7	42582	8.71	-1.5
7	43139	8.81	-1.5
7	43696	8.91	-1.5
7	44261	9.01	-1.5
7	44818	9.11	-1.5
7	45375	9.21	-1.5
7	45932	9.31	-1.5
7	46489	9.41	-1.5
7	47046	9.51	-1.1784535904988
7	47603	9.61	-0.73985166426131
7	48160	9.71	-0.29046662065306
7	48717	9.81	0.15868205664034
7	49274	9.91	0.59737147685681
7	49839	10.01	1.0162504341391
7	50396	10.11	1.4069035498462
7	50953	10.21	1.5
7	51510	10.31	1.5
7	52067	10.41	1.5
7	52624	10.51	1.5
7	53181	10.61	1.5
7	53738	10.71	1.5
7	54295	10.81	1.5
7	54852	10.91	1.5
7	55417	11.01	1.5
7	55974	11.11	1.5
7	56531	11.21	1.5
7	57088	11.31	1.5
7	57645	11.41	1.5
7	58202	11.51	1.5
7	58759	11.61	1.5
7	59316	11.71	1.5
7	59873	11.81	1.5
7	60430	11.91	1.1420569523224
7	60995	12.01	0.73271074172757
7	61552	12.11	0.30763491701868
7	62109	12.21	-0.12290183401692
7	62666	12.31	-0.54917422866109
7	63223	12.41	-0.96209331717302
7	63780	12.51	-1.3532900275371
7	64337	12.61	-1.5
7	64894	12.71	-1.5
7	65451	12.81	-1.5
7	66008	12.91	-1.5
7	66573	13.01	-1.5
7	67130	13.11	-1.5
7	67687	13.21	-1.5
7	68244	13.31	-1.5
7	68801	13.41	-1.5
7	69358	13.51	-1.5
7	69915	13.61	-1.5
7	70472	13.71	-1.5
7	71029	13.81	-1.5
7	71586	13.91	-1.5
7	72151	14.01	-1.5
7	72708	14.11	-1.5
7	73265	14.21	-1.5
7	73822	14.31	-1.5
7	74379	14.41	-1.3008305793183
7	74936	14.51	-0.88835736021285
7	75493	14.61	-0.45792464374985
7	76050	14.71	-0.020297800482021
7	76607	14.81	0.4143593475729
7	77164	14.91	0.8365748748462
7	77729	15.01	1.2376491838941
7	78286	15.11	1.5
7	78843	15.21	1.5
7	79400	15.31	1.5
7	79957	15.41	1.5
7	80514	15.51	1.5
7	81071	15.61	1.5
7	81628	15.71	1.5
7	82185	15.81	1.5
7	82742	15.91	1.5
7	83307	16.01	1.5
7	83864	16.11	1.5
7	84421	16.21	1.5
7	84978	16.31	1.5
7	85535	16.41	1.5
7	86092	16.51	1.5
7	86649	16.61	1.5
7	87206	16.71	1.5
7	87763	16.81	1.5
7	88320	16.91	1.2451238477388
7	88885	17.01	0.83347870135435
7	89442	17.11	0.40470958876969
7	89999	17.21	-0.030598062218257
7	90556	17.31	-0.46243980386594
7	91113	17.41	-0.8814833530456
7	91670	17.51	-1.2791500631716
7	92227	17.61	-1.5
7	92784	17.71	-1.5
7	93341	17.81	-1.5
7	93898	17.91	-1.5
7	94463	18.01	-1.5
7	95020	18.11	-1.5
7	95577	18.21	-1.5
7	96134	18.31	-1.5
7	96691	18.41	-1.5
7	97248	18.51	-1.5
7	97805	18.61	-1.5
7	98362	18.71	-1.5
7	98919	18.81	-1.5
7	99476	18.91	-1.5
7	100041	19.01	-1.5
7	100598	19.11	-1.5
7	101155	19.21	-1.5
7	101712	19.31	-1.5
7	102269	19.41	-1.2657245815134
7	102826	19.51	-0.85377693481579
7	103383	19.61	-0.42439560038158
7	103940	19.71	0.011767371267542
7	104497	19.81	0.44464851836336
7	105054	19.91	0.86486384400473
7	105619	20.01	1.2637899041122
7	106176	20.11	1.5
7	106733	20.21	1.5
7	107290	20.31	1.5
7	107847	20.41	1.5
7	108404	20.51	1.5
7	108961	20.61	1.5
7	109518	20.71	1.5
7	110075	20.81	1.5
7	110632	20.91	1.5
7	111197	21.01	1.5
7	111754	21.11	1.5
7	112311	21.21	1.5
7	112868	21.31	1.5
7	113425	21.41	1.5
7	113982	21.51	1.5
7	114539	21.61	1.5
7	115096	21.71	1.5
7	115653	21.81	1.5
7	116210	21.91	1.2580915517758
7	116775	22.01	0.84625491634779
7	117332	22.11	0.41709956367461
7	117889	22.21	-0.018747163543122
7	118446	22.31	-0.45124369149455
7	119003	22.41	-0.8710252053863
7	119560	22.51	-1.26948487946
7	120117	22.61	-1.5
7	120674	22.71	-1.5
7	121231	22.81	-1.5
7	121788	22.91	-1.5
7	122353	23.01	-1.5
7	122910	23.11	-1.5
7	123467	23.21	-1.5
7	124024	23.31	-1.5
7	124581	23.41	-1.5
7	125138	23.51	-1.5
7	125695	23.61	-1.5
7	126252	23.71	-1.5
7	126809	23.81	-1.5
7	127366	23.91	-1.5
7	127931	24.01	-1.5
7	128488	24.11	-1.5
7	129045	24.21	-1.5
7	129602	24.31	-1.5
7	130159	24.41	-1.260923965112
7	130716	24.51	-0.84904615684565
7	131273	24.61	-0.41980696481147
7	131830	24.71	0.01615709944571
7	132387	24.81	0.44879633965971
7	132944	24.91	0.86873882266827
7	133509	25.01	1.2673715557189
7	134066	25.11	1.5
7	134623	25.21	1.5
7	135180	25.31	1.5
7	135737	25.41	1.5
7	136294	25.51	1.5
7	136851	25.61	1.5
7	137408	25.71	1.5
7	137965	25.81	1.5
7	138522	25.91	1.5
7	139087	26.01	1.5
7	139644	26.11	1.5
7	140201	26.21	1.5
7	140758	26.31	1.5
7	141315	26.41	1.5
7	141872	26.51	1.5
7	142429	26.61	1.5
7	142986	26.71	1.5
7	143543	26.81	1.5
7	144100	26.91	1.259872851863
7	144665	27.01	0.84801032251393
7	145222	27.11	0.41880224309103
7	145779	27.21	-0.017118277442348
7	146336	27.31	-0.44970455708455
7	146893	27.41	-0.86958730431938
7	147450	27.51	-1.2681558149833
7	148007	27.61	-1.5
7	148564	27.71	-1.5
7	149121	27.81	-1.5
7	149678	27.91	-1.5
7	150243	28.01	-1.5
7	150800	28.11	-1.5
7	151357	28.21	-1.5
7	151914	28.31	-1.5
7	152471	28.41	-1.5
7	153028	28.51	-1.5
7	153585	28.61	-1.5
7	154142	28.71	-1.5
7	154699	28.81	-1.5
7	155256	28.91	-1.5
7	155821	29.01	-1.5
7	156378	29.11	-1.5
7	156935	29.21	-1.5
7	157492	29.31	-1.5
7	158049	29.41	-1.2602629232527
7	158606	29.51	-0.84839472385746
7	159163	29.61	-0.41917509845393
7	159720	29.71	0.016761581285863
7	160277	29.81	0.44936751475712
7	160834	29.91	0.86927243012053
7	161399	30.01	1.2678647739099
7	161956	30.11	1.5
7	162513	30.21	1.5
7	163070	30.31	1.5
7	163627	30.41	1.5
7	164184	30.51	1.5
7	164741	30.61	1.5
7	165298	30.71	1.5
7	165855	30.81	1.5
7	166412	30.91	1.5
7	166977	31.01	1.5
7	167534	31.11	1.5
7	168091	31.21	1.5
7	168648	31.31	1.5
7	169205	31.41	1.5
7	169762	31.51	1.5
7	170319	31.61	1.5
7	170876	31.71	1.5
7	171433	31.81	1.5
7	171990	31.91	1.2601181665191
7	172555	32.01	0.84825207129591
7	173112	32.11	0.4190367306424
7	173669	32.21	-0.01689395236456
7	174226	32.31	-0.44949259223739
7	174783	32.41	-0.86938928093775
7	175340	32.51	-1.2679727801784
7	175897	32.61	-1.5
7	176454	32.71	-1.5
7	177011	32.81	-1.5
7	177568	32.91	-1.5
7	178133	33.01	-1.5
7	178690	33.11	-1.5
7	179247	33.21	-1.5
7	179804	33.31	-1.5
7	180361	33.41	-1.5
7	180918	33.51	-1.5
7	181475	33.61	-1.5
7	182032	33.71	-1.5
7	182589	33.81	-1.5
7	183146	33.91	-1.5
7	183711	34.01	-1.5
7	184268	34.11	-1.5
7	184825	34.21	-1.5
7	185382	34.31	-1.5
7	185939	34.41	-1.2601718862043
7	186496	34.51	-0.8483050101162
7	187053	34.61	-0.4190880793783
7	187610	34.71	0.016844829035321
7	188167	34.81	0.44944617558577
7	188724	34.91	0.86934591722702
7	189289	35.01	1.2679326987079
7	189846	35.11	1.5
7	190403	35.21	1.5
7	190960	35.31	1.5
7	191517	35.41	1.5
7	192074	35.51	1.5
7	192631	35.61	1.5
7	193188	35.71	1.5
7	193745	35.81	1.5
7	194302	35.91	1.5
7	194867	36.01	1.5
7	195424	36.11	1.5
7	195981	36.21	1.5
7	196538	36.31	1.5
6	232	1.11	-6.1957727837125e-08
6	788	1.21	-1.257166815094e-07
6	1344	1.31	-1.7576642363792e-07
6	1900	1.41	-2.1367210223389e-07
6	2456	1.51	-2.40935627005e-07
6	3012	1.61	-2.5897985977963e-07
6	3568	1.71	-2.6913706818732e-07
6	4124	1.81	-2.7264253077419e-07
6	4680	1.91	-2.70628319754e-07
6	5244	2.01	-2.6412187992264e-07
6	5800	2.11	-2.540470944723e-07
6	6356	2.21	-2.4122570607688e-07
6	6912	2.31	-2.2638122487706e-07
6	7468	2.41	-2.1014301410105e-07
6	8024	2.51	-1.9305321785623e-07
6	8580	2.61	-1.7557066911422e-07
6	9136	2.71	-1.5808012676644e-07
6	9692	2.81	-1.408965388805e-07
6	10248	2.91	-1.2427268103465e-07
6	10812	3.01	-1.0840643938081e-07
6	11368	3.11	-9.3446494986438e-08
6	11924	3.21	-7.9497652905047e-08
6	12480	3.31	-6.662919105338e-08
6	13036	3.41	-5.487734711096e-08
6	13592	3.51	-4.4252601583139e-08
6	14148	3.61	-3.474287524341e-08
6	14704	3.71	-2.631832529687e-08
6	15260	3.81	-1.8935253365271e-08
6	15816	3.91	-1.2538947657958e-08
6	16380	4.01	-7.0667027785021e-09
6	16936	4.11	-2.4508395313205e-09
6	17492	4.21	1.3796963571622e-09
6	18048	4.31	4.4970249746257e-09
6	18604	4.41	6.9737993158014e-09
6	19160	4.51	8.8805407472137e-09
6	19716	4.61	1.0285283735811e-08
6	20272	4.71	1.1253575848968e-08
6	20828	4.81	1.1845813219225e-08
6	21384	4.91	1.2119549808176e-08
6	21949	5.01	1.2126655235534e-08
6	22506	5.11	0.0068264407582674
6	23063	5.21	0.074594825204244
6	23620	5.31	0.19005133580965
6	24177	5.41	0.34050271604578
6	24734	5.51	0.51301637992296
6	25291	5.61	0.69025457770344
6	25848	5.71	0.83572671948744
6	26405	5.81	0.95506454367928
6	26962	5.91	1.0529631248657
6	27527	6.01	1.1332740595019
6	28084	6.11	1.1991569981921
6	28641	6.21	1.2532039549377
6	29198	6.31	1.2975412840174
6	29755	6.41	1.333913336549
6	30312	6.51	1.3635927235564
6	30869	6.61	1.3702053601566
6	31426	6.71	1.3272611912161
6	31983	6.81	1.2373810907324
6	32540	6.91	1.10404337413
6	33105	7.01	0.93147091874766
6	33662	7.11	0.72451590435048
6	34219	7.21	0.4885431822391
6	34776	7.31	0.22931329511646
6	35333	7.41	-0.044839399439311
6	35890	7.51	-0.30626147528494
6	36447	7.61	-0.52071863075458
6	37004	7.71	-0.69664819363986
6	37561	7.81	-0.84097171145086
6	38118	7.91	-0.95936726391912
6	38683	8.01	-1.0564928540992
6	39240	8.11	-1.1361696668779
6	39797	8.21	-1.2015324047802
6	40354	8.31	-1.2551526156937
6	40911	8.41	-1.2991398645553
6	41468	8.51	-1.3352247293753
6	42025	8.61	-1.3648268868815
6	42582	8.71	-1.3891109664646
6	43139	8.81	-1.4090323698644
6	43696	8.91	-1.4253748592747
6	44261	9.01	-1.4387813926779
6	44818	9.11	-1.4497794195627
6	45375	9.21	-1.4588016322197
6	45932	9.31	-1.4662029890339
6	46489	9.41	-1.472274679513
6	47046	9.51	-1.4696249147034
6	47603	9.61	-1.3967850639437
6	48160	9.71	-1.2587757641633
6	48717	9.81	-1.0660952218261
6	49274	9.91	-0.82923335021992
6	49839	10.01	-0.55852907837295
6	50396	10.11	-0.26404116072971
6	50953	10.21	0.039432698699926
6	51510	10.31	0.30182609752512
6	52067	10.41	0.51708007614977
6	52624	10.51	0.69366331155596
6	53181	10.61	0.83852306850822
6	53738	10.71	0.95735852384404
6	54295	10.81	1.0548449875937
6	54852	10.91	1.1348178423914
6	55417	11.01	1.2004234378608
6	55974	11.11	1.2542428765666
6	56531	11.21	1.2983935616091
6	57088	11.31	1.3346125010223
6	57645	11.41	1.364324646393
6	58202	11.51	1.3886989543336
6	58759	11.61	1.4086943764131
6	59316	11.71	1.4250975869215
6	59873	11.81	1.4385539327746
6	60430	11.91	1.4345627372796
6	60995	12.01	1.362344918871
6	61552	12.11	1.2299875654412
6	62109	12.21	1.0461448397713
6	62666	12.31	0.81967864248274
6	63223	12.41	0.55952045903922
6	63780	12.51	0.27454262948492
6	64337	12.61	-0.022341644884349
6	64894	12.71	-0.2878054805846
6	65451	12.81	-0.50557828687943
6	66008	12.91	-0.68422783828268
6	66573	13.01	-0.83078269404986
6	67130	13.11	-0.95100872081701
6	67687	13.21	-1.0496359374757
6	68244	13.31	-1.1305446069832
6	68801	13.41	-1.1969178964591
6	69358	13.51	-1.2513671116379
6	69915	13.61	-1.2960344327389
6	70472	13.71	-1.3326771936644
6	71029	13.81	-1.3627370202924
6	71586	13.91	-1.3873965479609
6	72151	14.01	-1.4076259495598
6	72708	14.11	-1.4242211047687
6	73265	14.21	-1.4378349121303
6	73822	14.31	-1.4490029758544
6	74379	14.41	-1.454259395185
6	74936	14.51	-1.4067454390036
6	75493	14.61	-1.2938574955303
6	76050	14.71	-1.124840905225
6	76607	14.81	-0.90912582142568
6	77164	14.91	-0.65618298375991
6	77729	15.01	-0.37539052553566
6	78286	15.11	-0.078063005087259
6	78843	15.21	0.20543869668082
6	79400	15.31	0.43800883573812
6	79957	15.41	0.62879735391554
6	80514	15.51	0.7853103904381
6	81071	15.61	0.91370559385755
6	81628	15.71	1.0190343806947
6	82185	15.81	1.1054406719046
6	82742	15.91	1.1763239259972
6	83307	16.01	1.2344728829815
6	83864	16.11	1.2821752809831
6	84421	16.21	1.3213078620836
6	84978	16.31	1.353410208459
6	85535	16.41	1.3797453137304
6	86092	16.51	1.4013492725669
6	86649	16.61	1.4190720434685
6	87206	16.71	1.433610888447
6	87763	16.81	1.4455378052071
6	88320	16.91	1.4502949065323
6	88885	17.01	1.3935559567521
6	89442	17.11	1.2733368701442
6	89999	17.21	1.0986742440538
6	90556	17.31	0.87879676591474
6	91113	17.41	0.62298329276036
6	91670	17.51	0.34043137853494
6	92227	17.61	0.043031849081565
6	92784	17.71	-0.23417644595263
6	93341	17.81	-0.4615837994951
6	93898	17.91	-0.648137035353
6	94463	18.01	-0.801175665225
6	95020	18.11	-0.92672064505575
6	95577	18.21	-1.0297112558181
6	96134	18.31	-1.1141994282598
6	96691	18.41	-1.1835091568821
6	97248	18.51	-1.2403672749222
6	97805	18.61	-1.2870107353907
6	98362	18.71	-1.325274618886
6	98919	18.81	-1.3566643306579
6	99476	18.91	-1.3824148273438
6	100041	19.01	-1.4035392035211
6	100598	19.11	-1.420868549604
6	101155	19.21	-1.4350846492013
6	101712	19.31	-1.4467468023362
6	102269	19.41	-1.451720194177
6	102826	19.51	-1.3984004323888
6	103383	19.61	-1.2808993810095
6	103940	19.71	-1.1083308503775
6	104497	19.81	-0.88999806036849
6	105054	19.91	-0.63525086466907
6	105619	20.01	-0.35335363991358
6	106176	20.11	-0.055983891307321
6	106733	20.21	0.22355126013291
6	107290	20.31	0.4528674463721
6	107847	20.41	0.6409865898874
6	108404	20.51	0.79530980944416
6	108961	20.61	0.92190860023873
6	109518	20.71	1.0257637030335
6	110075	20.81	1.1109610600444
6	110632	20.91	1.1808525670222
6	111197	21.01	1.2381879459472
6	111754	21.11	1.2852229265711
6	112311	21.21	1.3238079929604
6	112868	21.31	1.3554611865732
6	113425	21.41	1.3814278301394
6	113982	21.51	1.4027295220425
6	114539	21.61	1.4202043287794
6	115096	21.71	1.4345397567766
6	115653	21.81	1.4462998007621
6	116210	21.91	1.4512038299459
6	116775	22.01	1.3966149622043
6	117332	22.11	1.2781048258539
6	117889	22.21	1.1047586168255
6	118446	22.31	0.88585193073953
6	119003	22.41	0.63070830476128
6	119560	22.51	0.34856734381012
6	120117	22.61	0.0511856543703
6	120674	22.71	-0.22748748564663
6	121231	22.81	-0.45609652228009
6	121788	22.91	-0.6436355568189
6	122353	23.01	-0.79748288496297
6	122910	23.11	-0.92369127904615
6	123467	23.21	-1.0272261205623
6	124024	23.31	-1.1121607517778
6	124581	23.41	-1.1818367320961
6	125138	23.51	-1.2389953040925
6	125695	23.61	-1.2858852414526
6	126252	23.71	-1.3243513218477
6	126809	23.81	-1.3559069055024
6	127366	23.91	-1.3817934749051
6	127931	24.01	-1.4030294781042
6	128488	24.11	-1.4204503972245
6	129045	24.21	-1.4347416186069
6	129602	24.31	-1.4464653977715
6	130159	24.41	-1.4513952146874
6	130716	24.51	-1.3972773206753
6	131273	24.61	-1.2791416668554
6	131830	24.71	-1.1060840673016
6	132387	24.81	-0.88739036841616
6	132944	24.91	-0.63239387292562
6	133509	25.01	-0.35034337810913
6	134066	25.11	-0.052966136909482
6	134623	25.21	0.22602686982296
6	135180	25.31	0.45489830857282
6	135737	25.41	0.64265260424126
6	136294	25.51	0.79667652148707
6	136851	25.61	0.92302978013983
6	137408	25.71	1.026683461059
6	137965	25.81	1.1117155819768
6	138522	25.91	1.1814715378065
6	139087	26.01	1.2386957175778
6	139644	26.11	1.2856394761648
6	140201	26.21	1.3241497087115
6	140758	26.31	1.3557415125092
6	141315	26.41	1.3816577950445
6	141872	26.51	1.4029181733612
6	142429	26.61	1.4203590885678
6	142986	26.71	1.4346667137062
6	143543	26.81	1.4464039496636
6	144100	26.91	1.4513241957731
6	144665	27.01	1.3970315218257
6	145222	27.11	1.2787568961965
6	145779	27.21	1.105592192547
6	146336	27.31	0.88681945319422
6	146893	27.41	0.63176835684544
6	147450	27.51	0.34968428947462
6	148007	27.61	0.052305397195518
6	148564	27.71	-0.22656890652382
6	149121	27.81	-0.45534296745871
6	149678	27.91	-0.64301737940227
6	150243	28.01	-0.79697576416979
6	150800	28.11	-0.92327526336593
6	151357	28.21	-1.0268848428064
6	151914	28.31	-1.1118807851512
6	152471	28.41	-1.1816070619497
6	153028	28.51	-1.2388068945784
6	153585	28.61	-1.2857306800282
6	154142	28.71	-1.3242245276457
6	154699	28.81	-1.3558028900942
6	155256	28.91	-1.3817081460418
6	155821	29.01	-1.4029594787162
6	156378	29.11	-1.420392973346
6	156935	29.21	-1.4346945110265
6	157492	29.31	-1.446426753148
6	158049	29.41	-1.451350551031
6	158606	29.51	-1.3971227384756
6	159163	29.61	-1.2788996857301
6	159720	29.71	-1.1057747287552
6	160277	29.81	-0.8870313215759
6	160834	29.91	-0.6320004877848
6	161399	30.01	-0.34992887930123
6	161956	30.11	-0.052550599748891
6	162513	30.21	0.22636775502605
6	163070	30.31	0.45517795316936
6	163627	30.41	0.64288201021068
6	164184	30.51	0.79686471428388
6	164741	30.61	0.92318416378063
6	165298	30.71	1.0268101094166
6	165855	30.81	1.1118194777421
6	166412	30.91	1.1815567685211
6	166977	31.01	1.2387656364497
6	167534	31.11	1.2856968339927
6	168091	31.21	1.3241967621083
6	168648	31.31	1.3557801126831
6	169205	31.41	1.3816894606315
6	169762	31.51	1.4029441501719
6	170319	31.61	1.4203803986005
6	170876	31.71	1.4346841953552
6	171433	31.81	1.4464182907044
6	171990	31.91	1.4513407705126
6	172555	32.01	1.397088887688
6	173112	32.11	1.278846696081
6	173669	32.21	1.1057069889883
6	174226	32.31	0.88695269654568
6	174783	32.41	0.63191434325471
6	175340	32.51	0.34983811123848
6	175897	32.61	0.052459604300914
6	176454	32.71	-0.22644240298693
6	177011	32.81	-0.4552391904971
6	177568	32.91	-0.64293224614804
6	178133	33.01	-0.79690592524955
6	178690	33.11	-0.92321797112618
6	179247	33.21	-1.0268378432148
6	179804	33.31	-1.111842229116
6	180361	33.41	-1.1815754325719
6	180918	33.51	-1.2387809474721
6	181475	33.61	-1.2857093943635
6	182032	33.71	-1.3242070659869
6	182589	33.81	-1.3557885654523
6	183146	33.91	-1.3816963948463
6	183711	34.01	-1.4029498386432
6	184268	34.11	-1.4203850651285
6	184825	34.21	-1.4346880235333
6	185382	34.31	-1.446421431144
6	185939	34.41	-1.451344400094
6	186496	34.51	-1.397101449823
6	187053	34.61	-1.2788663607086
6	187610	34.71	-1.1057321274317
6	188167	34.81	-0.88698187454508
6	188724	34.91	-0.63194631176433
6	189289	35.01	-0.34987179555621
6	189846	35.11	-0.052493373002349
6	190403	35.21	0.22641470089031
6	190960	35.31	0.4552164651292
6	191517	35.41	0.64291360343098
6	192074	35.51	0.79689063172861
6	192631	35.61	0.92320542511199
6	193188	35.71	1.026827551113
6	193745	35.81	1.1118337860077
6	194302	35.91	1.1815685062823
6	194867	36.01	1.2387752655021
6	195424	36.11	1.2857047331693
6	195981	36.21	1.3242032421841
6	196538	36.31	1.355785428602
5	232	1.11	36.55
5	788	1.21	36.55
5	1344	1.31	36.55
5	1900	1.41	36.55
5	2456	1.51	36.55
5	3012	1.61	36.55
5	3568	1.71	36.55
5	4124	1.81	36.55
5	4680	1.91	36.55
5	5244	2.01	36.55
5	5800	2.11	36.55
5	6356	2.21	36.55
5	6912	2.31	36.55
5	7468	2.41	36.55
5	8024	2.51	36.55
5	8580	2.61	36.55
5	9136	2.71	36.55
5	9692	2.81	36.55
5	10248	2.91	36.55
5	10812	3.01	36.55
5	11368	3.11	36.55
5	11924	3.21	36.55
5	12480	3.31	36.55
5	13036	3.41	36.55
5	13592	3.51	36.55
5	14148	3.61	36.55
5	14704	3.71	36.55
5	15260	3.81	36.55
5	15816	3.91	36.55
5	16380	4.01	36.55
5	16936	4.11	36.55
5	17492	4.21	36.55
5	18048	4.31	36.55
5	18604	4.41	36.55
5	19160	4.51	36.55
5	19716	4.61	36.55
5	20272	4.71	36.55
5	20828	4.81	36.55
5	21384	4.91	36.55
5	21949	5.01	36.55
5	22506	5.11	36.55
5	23063	5.21	36.55
5	23620	5.31	36.55
5	24177	5.41	36.55
5	24734	5.51	36.55
5	25291	5.61	36.55
5	25848	5.71	36.55
5	26405	5.81	36.55
5	26962	5.91	36.55
5	27527	6.01	36.55
5	28084	6.11	36.55
5	28641	6.21	36.55
5	29198	6.31	36.55
5	29755	6.41	36.55
5	30312	6.51	36.55
5	30869	6.61	36.55
5	31426	6.71	36.55
5	31983	6.81	36.55
5	32540	6.91	36.55
5	33105	7.01	36.55
5	33662	7.11	36.55
5	34219	7.21	36.55
5	34776	7.31	36.55
5	35333	7.41	36.55
5	35890	7.51	36.55
5	36447	7.61	36.55
5	37004	7.71	36.55
5	37561	7.81	36.55
5	38118	7.91	36.55
5	38683	8.01	36.55
5	39240	8.11	36.55
5	39797	8.21	36.55
5	40354	8.31	36.55
5	40911	8.41	36.55
5	41468	8.51	36.55
5	42025	8.61	36.55
5	42582	8.71	36.55
5	43139	8.81	36.55
5	43696	8.91	36.55
5	44261	9.01	36.55
5	44818	9.11	36.55
5	45375	9.21	36.55
5	45932	9.31	36.55
5	46489	9.41	36.55
5	47046	9.51	36.55
5	47603	9.61	36.55
5	48160	9.71	36.55
5	48717	9.81	36.55
5	49274	9.91	36.55
5	49839	10.01	36.55
5	50396	10.11	36.55
5	50953	10.21	36.55
5	51510	10.31	36.55
5	52067	10.41	36.55
5	52624	10.51	36.55
5	53181	10.61	36.55
5	53738	10.71	36.55
5	54295	10.81	36.55
5	54852	10.91	36.55
5	55417	11.01	36.55
5	55974	11.11	36.55
5	56531	11.21	36.55
5	57088	11.31	36.55
5	57645	11.41	36.55
5	58202	11.51	36.55
5	58759	11.61	36.55
5	59316	11.71	36.55
5	59873	11.81	36.55
5	60430	11.91	36.55
5	60995	12.01	36.55
5	61552	12.11	36.55
5	62109	12.21	36.55
5	62666	12.31	36.55
5	63223	12.41	36.55
5	63780	12.51	36.55
5	64337	12.61	36.55
5	64894	12.71	36.55
5	65451	12.81	36.55
5	66008	12.91	36.55
5	66573	13.01	36.55
5	67130	13.11	36.55
5	67687	13.21	36.55
5	68244	13.31	36.55
5	68801	13.41	36.55
5	69358	13.51	36.55
5	69915	13.61	36.55
5	70472	13.71	36.55
5	71029	13.81	36.55
5	71586	13.91	36.55
5	72151	14.01	36.55
5	72708	14.11	36.55
5	73265	14.21	36.55
5	73822	14.31	36.55
5	74379	14.41	36.55
5	74936	14.51	36.55
5	75493	14.61	36.55
5	76050	14.71	36.55
5	76607	14.81	36.55
5	77164	14.91	36.55
5	77729	15.01	36.55
5	78286	15.11	36.55
5	78843	15.21	36.55
5	79400	15.31	36.55
5	79957	15.41	36.55
5	80514	15.51	36.55
5	81071	15.61	36.55
5	81628	15.71	36.55
5	82185	15.81	36.55
5	82742	15.91	36.55
5	83307	16.01	36.55
5	83864	16.11	36.55
5	84421	16.21	36.55
5	84978	16.31	36.55
5	85535	16.41	36.55
5	86092	16.51	36.55
5	86649	16.61	36.55
5	87206	16.71	36.55
5	87763	16.81	36.55
5	88320	16.91	36.55
5	88885	17.01	36.55
5	89442	17.11	36.55
5	89999	17.21	36.55
5	90556	17.31	36.55
5	91113	17.41	36.55
5	91670	17.51	36.55
5	92227	17.61	36.55
5	92784	17.71	36.55
5	93341	17.81	36.55
5	93898	17.91	36.55
5	94463	18.01	36.55
5	95020	18.11	36.55
5	95577	18.21	36.55
5	96134	18.31	36.55
5	96691	18.41	36.55
5	97248	18.51	36.55
5	97805	18.61	36.55
5	98362	18.71	36.55
5	98919	18.81	36.55
5	99476	18.91	36.55
5	100041	19.01	36.55
5	100598	19.11	36.55
5	101155	19.21	36.55
5	101712	19.31	36.55
5	102269	19.41	36.55
5	102826	19.51	36.55
5	103383	19.61	36.55
5	103940	19.71	36.55
5	104497	19.81	36.55
5	105054	19.91	36.55
5	105619	20.01	36.55
5	106176	20.11	36.55
5	106733	20.21	36.55
5	107290	20.31	36.55
5	107847	20.41	36.55
5	108404	20.51	36.55
5	108961	20.61	36.55
5	109518	20.71	36.55
5	110075	20.81	36.55
5	110632	20.91	36.55
5	111197	21.01	36.55
5	111754	21.11	36.55
5	112311	21.21	36.55
5	112868	21.31	36.55
5	113425	21.41	36.55
5	113982	21.51	36.55
5	114539	21.61	36.55
5	115096	21.71	36.55
5	115653	21.81	36.55
5	116210	21.91	36.55
5	116775	22.01	36.55
5	117332	22.11	36.55
5	117889	22.21	36.55
5	118446	22.31	36.55
5	119003	22.41	36.55
5	119560	22.51	36.55
5	120117	22.61	36.55
5	120674	22.71	36.55
5	121231	22.81	36.55
5	121788	22.91	36.55
5	122353	23.01	36.55
5	122910	23.11	36.55
5	123467	23.21	36.55
5	124024	23.31	36.55
5	124581	23.41	36.55
5	125138	23.51	36.55
5	125695	23.61	36.55
5	126252	23.71	36.55
5	126809	23.81	36.55
5	127366	23.91	36.55
5	127931	24.01	36.55
5	128488	24.11	36.55
5	129045	24.21	36.55
5	129602	24.31	36.55
5	130159	24.41	36.55
5	130716	24.51	36.55
5	131273	24.61	36.55
5	131830	24.71	36.55
5	132387	24.81	36.55
5	132944	24.91	36.55
5	133509	25.01	36.55
5	134066	25.11	36.55
5	134623	25.21	36.55
5	135180	25.31	36.55
5	135737	25.41	36.55
5	136294	25.51	36.55
5	136851	25.61	36.55
5	137408	25.71	36.55
5	137965	25.81	36.55
5	138522	25.91	36.55
5	139087	26.01	36.55
5	139644	26.11	36.55
5	140201	26.21	36.55
5	140758	26.31	36.55
5	141315	26.41	36.55
5	141872	26.51	36.55
5	142429	26.61	36.55
5	142986	26.71	36.55
5	143543	26.81	36.55
5	144100	26.91	36.55
5	144665	27.01	36.55
5	145222	27.11	36.55
5	145779	27.21	36.55
5	146336	27.31	36.55
5	146893	27.41	36.55
5	147450	27.51	36.55
5	148007	27.61	36.55
5	148564	27.71	36.55
5	149121	27.81	36.55
5	149678	27.91	36.55
5	150243	28.01	36.55
5	150800	28.11	36.55
5	151357	28.21	36.55
5	151914	28.31	36.55
5	152471	28.41	36.55
5	153028	28.51	36.55
5	153585	28.61	36.55
5	154142	28.71	36.55
5	154699	28.81	36.55
5	155256	28.91	36.55
5	155821	29.01	36.55
5	156378	29.11	36.55
5	156935	29.21	36.55
5	157492	29.31	36.55
5	158049	29.41	36.55
5	158606	29.51	36.55
5	159163	29.61	36.55
5	159720	29.71	36.55
5	160277	29.81	36.55
5	160834	29.91	36.55
5	161399	30.01	36.55
5	161956	30.11	36.55
5	162513	30.21	36.55
5	163070	30.31	36.55
5	163627	30.41	36.55
5	164184	30.51	36.55
5	164741	30.61	36.55
5	165298	30.71	36.55
5	165855	30.81	36.55
5	166412	30.91	36.55
5	166977	31.01	36.55
5	167534	31.11	36.55
5	168091	31.21	36.55
5	168648	31.31	36.55
5	169205	31.41	36.55
5	169762	31.51	36.55
5	170319	31.61	36.55
5	170876	31.71	36.55
5	171433	31.81	36.55
5	171990	31.91	36.55
5	172555	32.01	36.55
5	173112	32.11	36.55
5	173669	32.21	36.55
5	174226	32.31	36.55
5	174783	32.41	36.55
5	175340	32.51	36.55
5	175897	32.61	36.55
5	176454	32.71	36.55
5	177011	32.81	36.55
5	177568	32.91	36.55
5	178133	33.01	36.55
5	178690	33.11	36.55
5	179247	33.21	36.55
5	179804	33.31	36.55
5	180361	33.41	36.55
5	180918	33.51	36.55
5	181475	33.61	36.55
5	182032	33.71	36.55
5	182589	33.81	36.55
5	183146	33.91	36.55
5	183711	34.01	36.55
5	184268	34.11	36.55
5	184825	34.21	36.55
5	185382	34.31	36.55
5	185939	34.41	36.55
5	186496	34.51	36.55
5	187053	34.61	36.55
5	187610	34.71	36.55
5	188167	34.81	36.55
5	188724	34.91	36.55
5	189289	35.01	36.55
5	189846	35.11	36.55
5	190403	35.21	36.55
5	190960	35.31	36.55
5	191517	35.41	36.55
5	192074	35.51	36.55
5	192631	35.61	36.55
5	193188	35.71	36.55
5	193745	35.81	36.55
5	194302	35.91	36.55
5	194867	36.01	36.55
5	195424	36.11	36.55
5	195981	36.21	36.55
5	196538	36.31	36.55
4	232	1.11	145.73484382616
4	788	1.21	147.12373275655
4	1344	1.31	148.51262168559
4	1900	1.41	149.90151061279
4	2456	1.51	151.2903995378
4	3012	1.61	152.67928846037
4	3568	1.71	154.06817738032
4	4124	1.81	155.45706629758
4	4680	1.91	156.84595521211
4	5244	2.01	158.23484412395
4	5800	2.11	159.62373303317
4	6356	2.21	161.01262193987
4	6912	2.31	162.40151084419
4	7468	2.41	163.79039974628
4	8024	2.51	165.1792886463
4	8580	2.61	166.56817754443
4	9136	2.71	167.95706644083
4	9692	2.81	169.34595533569
4	10248	2.91	170.73484422917
4	10812	3.01	172.12373312145
4	11368	3.11	173.51262201266
4	11924	3.21	174.90151090298
4	12480	3.31	176.29039979252
4	13036	3.41	177.67928868142
4	13592	3.51	179.06817756979
4	14148	3.61	180.45706645774
4	14704	3.71	181.84595534536
4	15260	3.81	183.23484423273
4	15816	3.91	184.62373311992
4	16380	4.01	186.012622007
4	16936	4.11	187.40151089402
4	17492	4.21	188.79039978102
4	18048	4.31	190.17928866804
4	18604	4.41	191.56817755512
4	19160	4.51	192.95706644226
4	19716	4.61	194.3459553295
4	20272	4.71	195.73484421684
4	20828	4.81	197.12373310429
4	21384	4.91	198.51262199187
4	21949	5.01	199.90151087956
4	22506	5.11	201.29040113267
4	23063	5.21	202.67951788759
4	23620	5.31	204.06963473602
4	24177	5.41	205.46197630558
4	24734	5.51	206.85809257999
4	25291	5.61	208.25971842167
4	25848	5.71	209.66853931512
4	26405	5.81	211.08595730076
4	26962	5.91	212.51312267186
4	27527	6.01	213.95097906955
4	28084	6.11	215.40030060824
4	28641	6.21	216.86172233135
4	29198	6.31	218.33576519569
4	29755	6.41	219.82285656727
4	30312	6.51	221.32334700341
4	30869	6.61	222.83749425403
4	31426	6.71	224.36525188619
4	31983	6.81	225.90609338333
4	32540	6.91	227.45902996913
4	33105	7.01	229.02264693079
4	33662	7.11	230.59514715381
4	34219	7.21	232.17440071223
4	34776	7.31	233.7579993467
4	35333	7.41	235.34331512028
4	35890	7.51	236.9276351057
4	36447	7.61	238.50846149662
4	37004	7.71	240.08372714772
4	37561	7.81	241.65173627987
4	38118	7.91	243.21109776352
4	38683	8.01	244.76067038793
4	39240	8.11	246.29951796281
4	39797	8.21	247.82687248603
4	40354	8.31	249.34210392836
4	40911	8.41	250.8446954464
4	41468	8.51	252.33422304853
4	42025	8.61	253.81033891395
4	42582	8.71	255.27275770845
4	43139	8.81	256.72124535863
4	43696	8.91	258.15560984273
4	44261	9.01	259.57569363606
4	44818	9.11	260.98136751348
4	45375	9.21	262.37252546538
4	45932	9.31	263.74908052697
4	46489	9.41	265.11096135681
4	47046	9.51	266.45811169289
4	47603	9.61	267.79072683559
4	48160	9.71	269.10966810623
4	48717	9.81	270.41642726721
4	49274	9.91	271.71302143157
4	49839	10.01	273.00188843883
4	50396	10.11	274.28578400581
4	50953	10.21	275.56768089178
4	51510	10.31	276.85050731066
4	52067	10.41	278.13678457159
4	52624	10.51	279.42858750042
4	53181	10.61	280.72761817704
4	53738	10.71	282.03527289976
4	54295	10.81	283.35269711954
4	54852	10.91	284.68083050513
4	55417	11.01	286.02044391219
4	55974	11.11	287.37216971083
4	56531	11.21	288.73652666483
4	57088	11.31	290.11394034115
4	57645	11.41	291.50475985293
4	58202	11.51	292.90927159454
4	58759	11.61	294.32771050911
4	59316	11.71	295.76026933185
4	59873	11.81	297.20710617275
4	60430	11.91	298.66833593766
4	60995	12.01	300.14375359682
4	61552	12.11	301.63251383426
4	62109	12.21	303.13318754864
4	62666	12.31	304.64384884933
4	63223	12.41	306.16216384759
4	63780	12.51	307.68547987981
4	64337	12.61	309.2109147378
4	64894	12.71	310.73557967243
4	65451	12.81	312.25692890927
4	66008	12.91	313.77286334355
4	66573	13.01	315.28166097826
4	67130	13.11	316.78190917608
4	67687	13.21	318.27244908238
4	68244	13.31	319.75233003272
4	68801	13.41	321.22077215118
4	69358	13.51	322.67713566784
4	69915	13.61	324.12089574854
4	70472	13.71	325.55162184649
4	71029	13.81	326.96896076334
4	71586	13.91	328.37262275344
4	72151	14.01	329.76237012443
4	72708	14.11	331.13800788578
4	73265	14.21	332.49937607735
4	73822	14.31	333.84634347611
4	74379	14.41	335.17880321454
4	74936	14.51	336.49682183045
4	75493	14.61	337.80101462991
4	76050	14.71	339.09262534751
4	76607	14.81	340.37343980059
4	77164	14.91	341.64569147338
4	77729	15.01	342.91196696795
4	78286	15.11	344.17511220267
4	78843	15.21	345.43807005132
4	79400	15.31	346.7035496671
4	79957	15.41	347.97379278577
4	80514	15.51	349.25063841143
4	81071	15.61	350.53559516799
4	81628	15.71	351.82990065247
4	82185	15.81	353.13457012554
4	82742	15.91	354.4504364545
4	83307	16.01	355.77818288068
4	83864	16.11	357.1183698999
4	84421	16.21	358.47145731398
4	84978	16.31	359.83782232056
4	85535	16.41	361.21777435307
4	86092	16.51	362.61156725469
4	86649	16.61	364.01940926528
4	87206	16.71	365.44147121401
4	87763	16.81	366.87789324033
4	88320	16.91	368.32878929292
4	88885	17.01	369.79406286778
4	89442	17.11	371.27301559468
4	89999	17.21	372.76433381234
4	90556	17.31	374.26617822394
4	91113	17.41	375.77627631744
4	91670	17.51	377.29201501826
4	92227	17.61	378.81053285899
4	92784	17.71	380.32890419456
4	93341	17.81	381.84447676079
4	93898	17.91	383.35505858586
4	94463	18.01	384.85885148939
4	95020	18.11	386.35438033718
4	95577	18.21	387.84043500539
4	96134	18.31	389.31602277099
4	96691	18.41	390.78032925533
4	97248	18.51	392.23268638426
4	97805	18.61	393.67254610429
4	98362	18.71	395.09945882069
4	98919	18.81	396.51305570915
4	99476	18.91	397.91303420531
4	100041	19.01	399.299146101
4	100598	19.11	400.67118777906
4	101155	19.21	402.02899220251
4	101712	19.31	403.37242234284
4	102269	19.41	404.70136670768
4	102826	19.51	406.01591046294
4	103383	19.61	407.3167211456
4	103940	19.71	408.60508648983
4	104497	19.81	409.88282595535
4	105054	19.91	411.15219756881
4	105619	20.01	412.41580456944
4	106176	20.11	413.6765026355
4	106733	20.21	414.93722375896
4	107290	20.31	416.20064123594
4	107847	20.41	417.46896543746
4	108404	20.51	418.74400963761
4	108961	20.61	420.02726135271
4	109518	20.71	421.31994086425
4	110075	20.81	422.62304922807
4	110632	20.91	423.93740765864
4	111197	21.01	425.26368983783
4	111754	21.11	426.60244841944
4	112311	21.21	427.95413677206
4	112868	21.31	429.31912681585
4	113425	21.41	430.69772365488
4	113982	21.51	432.09017758075
4	114539	21.61	433.49669391976
4	115096	21.71	434.91744111097
4	115653	21.81	436.35255733311
4	116210	21.91	437.80215499216
4	116775	22.01	439.26614479594
4	117332	22.11	440.74384778471
4	117889	22.21	442.23396659824
4	118446	22.31	443.73467440948
4	119003	22.41	445.24370780947
4	119560	22.51	446.75845990164
4	120117	22.61	448.27607285151
4	120674	22.71	449.79361701175
4	121231	22.81	451.30842687732
4	121788	22.91	452.81829889341
4	122353	23.01	454.32142537756
4	122910	23.11	455.81632340056
4	123467	23.21	457.30177644393
4	124024	23.31	458.77678653883
4	124581	23.41	460.2405350032
4	125138	23.51	461.69235023261
4	125695	23.61	463.1316812775
4	126252	23.71	464.55807616735
4	126809	23.81	465.97116412891
4	127366	23.91	467.37064099895
4	127931	24.01	468.75625725771
4	128488	24.11	470.12780821208
4	129045	24.21	471.48512594238
4	129602	24.31	472.82807269603
4	130159	24.41	474.15653640547
4	130716	24.51	475.47060483126
4	131273	24.61	476.77095269404
4	131830	24.71	478.05887378169
4	132387	24.81	479.33619218712
4	132944	24.91	480.60516932177
4	133509	25.01	481.86841072481
4	134066	25.11	483.12877343039
4	134623	25.21	484.38918795574
4	135180	25.31	485.65232269694
4	135737	25.41	486.92038373808
4	136294	25.51	488.19518083651
4	136851	25.61	489.47819862359
4	137408	25.71	490.77065501412
4	137965	25.81	492.07354912245
4	138522	25.91	493.38770057033
4	139087	26.01	494.71378173308
4	139644	26.11	496.05234419263
4	140201	26.21	497.40384043831
4	140758	26.31	498.76864166895
4	141315	26.41	500.14705239687
4	141872	26.51	501.53932242826
4	142429	26.61	502.94565669119
4	142986	26.71	504.36622329806
4	143543	26.81	505.80116015957
4	144100	26.91	507.25057946888
4	144665	27.01	508.71439289702
4	145222	27.11	510.19192415021
4	145779	27.21	511.68187811485
4	146336	27.31	513.18242968339
4	146893	27.41	514.6913167031
4	147450	27.51	516.20593313106
4	148007	27.61	517.72342163613
4	148564	27.71	519.24085202388
4	149121	27.81	520.75555697112
4	149678	27.91	522.26533133236
4	150243	28.01	523.76836612025
4	150800	28.11	525.26317733512
4	151357	28.21	526.74854758032
4	151914	28.31	528.22347816661
4	152471	28.41	529.68714982096
4	153028	28.51	531.13889045413
4	153585	28.61	532.57814871886
4	154142	28.71	534.00447231836
4	154699	28.81	535.41749021173
4	155256	28.91	536.81689801619
4	155821	29.01	538.20244603185
4	156378	29.11	539.57392941783
4	156935	29.21	540.93118013326
4	157492	29.31	542.27406032611
4	158049	29.41	543.60245784983
4	158606	29.51	544.91646082245
4	159163	29.61	546.21674495396
4	159720	29.71	547.50460486597
4	160277	29.81	548.78186528951
4	160834	29.91	550.05078810219
4	161399	30.01	551.31397916001
4	161956	30.11	552.57429568389
4	162513	30.21	553.83466798805
4	163070	30.31	555.09776379383
4	163627	30.41	556.36578859504
4	164184	30.51	557.64055166477
4	164741	30.61	558.92353723713
4	165298	30.71	560.21596290105
4	165855	30.81	561.51882750352
4	166412	30.91	562.832950447
4	166977	31.01	564.15900392688
4	167534	31.11	565.49753937751
4	168091	31.21	566.84900916714
4	168648	31.31	568.21378439526
4	169205	31.41	569.59216949275
4	169762	31.51	570.98441419892
4	170319	31.61	572.39072338702
4	170876	31.71	573.81126512446
4	171433	31.81	575.24617728506
4	171990	31.91	576.69557203265
4	172555	32.01	578.15936117091
4	173112	32.11	579.63686877323
4	173669	32.21	581.1268000354
4	174226	32.31	582.62733008668
4	174783	32.41	584.13619694734
4	175340	32.51	585.65079469204
4	175897	32.61	587.16826605893
4	176454	32.71	588.68568077826
4	177011	32.81	590.20037127645
4	177568	32.91	591.71013218893
4	178133	33.01	593.21315434867
4	178690	33.11	594.70795360856
4	179247	33.21	596.19331245102
4	179804	33.31	597.66823208759
4	180361	33.41	599.13189316387
4	180918	33.51	600.58362352384
4	181475	33.61	602.02287176547
4	182032	33.71	603.44918554705
4	182589	33.81	604.8621937908
4	183146	33.91	606.26159208372
4	183711	34.01	607.64713070111
4	184268	34.11	609.01860478174
4	184825	34.21	610.37584626806
4	185382	34.31	611.71871729431
4	185939	34.41	613.04710570309
4	186496	34.51	614.36109966167
4	187053	34.61	615.66137501627
4	187610	34.71	616.94922650332
4	188167	34.81	618.22647894173
4	188724	34.91	619.49539427333
4	189289	35.01	620.75857839772
4	189846	35.11	622.01888856158
4	190403	35.21	623.27925505113
4	190960	35.31	624.54234549482
4	191517	35.41	625.81036530516
4	192074	35.51	627.08512368854
4	192631	35.61	628.36810482437
4	193188	35.71	629.6605262567
4	193745	35.81	630.9633867957
4	194302	35.91	632.27750581362
4	194867	36.01	633.60355548108
4	195424	36.11	634.94208721211
4	195981	36.21	636.29355335827
4	196538	36.31	637.65832500539
3	232	1.11	13.888889309806
3	788	1.21	13.888889299984
3	1344	1.31	13.888889284553
3	1900	1.41	13.888889264797
3	2456	1.51	13.888889241849
3	3012	1.61	13.888889216692
3	3568	1.71	13.888889190176
3	4124	1.81	13.888889163019
3	4680	1.91	13.888889135825
3	5244	2.01	13.888889109087
3	5800	2.11	13.888889083203
3	6356	2.21	13.888889058484
3	6912	2.31	13.888889035164
3	7468	2.41	13.888889013409
3	8024	2.51	13.88888899333
3	8580	2.61	13.888888974985
3	9136	2.71	13.888888958391
3	9692	2.81	13.888888943532
3	10248	2.91	13.888888930362
3	10812	3.01	13.888888918814
3	11368	3.11	13.888888908804
3	11924	3.21	13.888888900236
3	12480	3.31	13.888888893003
3	13036	3.41	13.888888886995
3	13592	3.51	13.888888882101
3	14148	3.61	13.888888878208
3	14704	3.71	13.888888875206
3	15260	3.81	13.888888872989
3	15816	3.91	13.888888871455
3	16380	4.01	13.888888870509
3	16936	4.11	13.888888870063
3	17492	4.21	13.888888870035
3	18048	4.31	13.88888887035
3	18604	4.41	13.888888870941
3	19160	4.51	13.888888871748
3	19716	4.61	13.888888872717
3	20272	4.71	13.888888873802
3	20828	4.81	13.888888874963
3	21384	4.91	13.888888876165
3	21949	5.01	13.888888877379
3	22506	5.11	13.88895714287
3	23063	5.21	13.8931707169
3	23620	5.31	13.906886981158
3	24177	5.41	13.934167403487
3	24734	5.51	13.977833057683
3	25291	5.61	14.039174898244
3	25848	5.71	14.116438827352
3	26405	5.81	14.206769915256
3	26962	5.91	14.307820624663
3	27527	6.01	14.417665157344
3	28084	6.11	14.534723687999
3	28641	6.21	14.657700209627
3	29198	6.31	14.785531545087
3	29755	6.41	14.917345518821
3	30312	6.51	15.052425059448
3	30869	6.61	15.189500093972
3	31426	6.71	15.324463010101
3	31983	6.81	15.452496243768
3	32540	6.91	15.569092845265
3	33105	7.01	15.670136008044
3	33662	7.11	15.751967163808
3	34219	7.21	15.811442461837
3	34776	7.31	15.845977552212
3	35333	7.41	15.853603639796
3	35890	7.51	15.834314677718
3	36447	7.61	15.791543255453
3	37004	7.71	15.729508036896
3	37561	7.81	15.651669795801
3	38118	7.91	15.560867572035
3	38683	8.01	15.459430367125
3	39240	8.11	15.349268773515
3	39797	8.21	15.231950142466
3	40354	8.31	15.108760247923
3	40911	8.41	14.980753872353
3	41468	8.51	14.848796304763
3	42025	8.61	14.713597383517
3	42582	8.71	14.575739423308
3	43139	8.81	14.435700125008
3	43696	8.91	14.293871369713
3	44261	9.01	14.150574636415
3	44818	9.11	14.006073649857
3	45375	9.21	13.860584756185
3	45932	9.31	13.714285434593
3	46489	9.41	13.567321279832
3	47046	9.51	13.419909418317
3	47603	9.61	13.276568052228
3	48160	9.71	13.144199549998
3	48717	9.81	13.028740637906
3	49274	9.91	12.935077207518
3	49839	10.01	12.867053163966
3	50396	10.11	12.827492798447
3	50953	10.21	12.818184012284
3	51510	10.31	12.836987312871
3	52067	10.41	12.879360323559
3	52624	10.51	12.941068705856
3	53181	10.61	13.01863882738
3	53738	10.71	13.109221099712
3	54295	10.81	13.210477867837
3	54852	10.91	13.320491440438
3	55417	11.01	13.437688642703
3	55974	11.11	13.56077892335
3	56531	11.21	13.688703580829
3	57088	11.31	13.820594111122
3	57645	11.41	13.955738038437
3	58202	11.51	14.093550884467
3	58759	11.61	14.233553173427
3	59316	11.71	14.375351568173
3	59873	11.81	14.518623395246
3	60430	11.91	14.66269730263
3	60995	12.01	14.802538408274
3	61552	12.11	14.931758497807
3	62109	12.21	15.044820373205
3	62666	12.31	15.137065146099
3	63223	12.41	15.204725281664
3	63780	12.51	15.244924342721
3	64337	12.61	15.255706566207
3	64894	12.71	15.238438484058
3	65451	12.81	15.197324887205
3	66008	12.91	15.136649662907
3	66573	13.01	15.05992709079
3	67130	13.11	14.970040104174
3	67687	13.21	14.869353712503
3	68244	13.31	14.759808047257
3	68801	13.41	14.642994691995
3	69358	13.51	14.520219299584
3	69915	13.61	14.392552960135
3	70472	13.71	14.260874340597
3	71029	13.81	14.125904253911
3	71586	13.91	13.988234017746
3	72151	14.01	13.848348718545
3	72708	14.11	13.706646296149
3	73265	14.21	13.56345319983
3	73822	14.31	13.419037231692
3	74379	14.41	13.273657135565
3	74936	14.51	13.130441982788
3	75493	14.61	12.995670307401
3	76050	14.71	12.875370078417
3	76607	14.81	12.774633040977
3	77164	14.91	12.697604313193
3	77729	15.01	12.647485799739
3	78286	15.11	12.626530819682
3	78843	15.21	12.634779968798
3	79400	15.31	12.66849489927
3	79957	15.41	12.723100640181
3	80514	15.51	12.79484412192
3	81071	15.61	12.88064652021
3	81628	15.71	12.977982126792
3	82185	15.81	13.084778981187
3	82742	15.91	13.199337354141
3	83307	16.01	13.320262875649
3	83864	16.11	13.446411676648
3	84421	16.21	13.576845386097
3	84978	16.31	13.71079421291
3	85535	16.41	13.847626660274
3	86092	16.51	13.986824680856
3	86649	16.61	14.127963295405
3	87206	16.71	14.270693872916
3	87763	16.81	14.414730414535
3	88320	16.91	14.559787728906
3	88885	17.01	14.702082559026
3	89442	17.11	14.835117319103
3	89999	17.21	14.95304189545
3	90556	17.31	15.050921902539
3	91113	17.41	15.124749945874
3	91670	17.51	15.171443265846
3	92227	17.61	15.188857753955
3	92784	17.71	15.177461901473
3	93341	17.81	15.141165578244
3	93898	17.91	15.084442196173
3	94463	18.01	15.010961511109
3	95020	18.11	14.923734001024
3	95577	18.21	14.825229306406
3	96134	18.31	14.717473392626
3	96691	18.41	14.602128256938
3	97248	18.51	14.480557315958
3	97805	18.61	14.353879046192
3	98362	18.71	14.223010987939
3	98919	18.81	14.088705843826
3	99476	18.91	13.951581092168
3	100041	19.01	13.812143280257
3	100598	19.11	13.670807953298
3	101155	19.21	13.527916003097
3	101712	19.31	13.383747079665
3	102269	19.41	13.23857652977
3	102826	19.51	13.095945007457
3	103383	19.61	12.962270845178
3	103940	19.71	12.843470007216
3	104497	19.81	12.744535147797
3	105054	19.91	12.669524665226
3	105619	20.01	12.621565448378
3	106176	20.11	12.602842059212
3	106733	20.21	12.613074483492
3	107290	20.31	12.648416390373
3	107847	20.41	12.704356818615
3	108404	20.51	12.777195208837
3	108961	20.61	12.863895813439
3	109518	20.71	12.961968262042
3	110075	20.81	13.069369583537
3	110632	20.91	13.184423830048
3	111197	21.01	13.305756140585
3	111754	21.11	13.432238650273
3	112311	21.21	13.562946117079
3	112868	21.31	13.697119520272
3	113425	21.41	13.834136198489
3	113982	21.51	13.973485352538
3	114539	21.61	14.114747949169
3	115096	21.71	14.25758023517
3	115653	21.81	14.401700213177
3	116210	21.91	14.546829114103
3	116775	22.01	14.689336934087
3	117332	22.11	14.822775023755
3	117889	22.21	14.941251840502
3	118446	22.31	15.039796341815
3	119003	22.41	15.114369048335
3	119560	22.51	15.161859441787
3	120117	22.61	15.180097968285
3	120674	22.71	15.169434538294
3	121231	22.81	15.13373905661
3	121788	22.91	15.07750857388
3	122353	23.01	15.004432237952
3	122910	23.11	14.917536434993
3	123467	23.21	14.819303855751
3	124024	23.31	14.711771171359
3	124581	23.41	14.596609161518
3	125138	23.51	14.475188447516
3	125695	23.61	14.348633416197
3	126252	23.71	14.217866456394
3	126809	23.81	14.083644248221
3	127366	23.91	13.946587532923
3	127931	24.01	13.807205534522
3	128488	24.11	13.665915994083
3	129045	24.21	13.523061604774
3	129602	24.31	13.378923494356
3	130159	24.41	13.233779163163
3	130716	24.51	13.091225460604
3	131273	24.61	12.957699786749
3	131830	24.71	12.839102746868
3	132387	24.81	12.74041340342
3	132944	24.91	12.665678256479
3	133509	25.01	12.618013899389
3	134066	25.11	12.599595455496
3	134623	25.21	12.61009895213
3	135180	25.31	12.645663232756
3	135737	25.41	12.701786084922
3	136294	25.51	12.774774126299
3	136851	25.61	12.861597496972
3	137408	25.71	12.959770656513
3	137965	25.81	13.067254596054
3	138522	25.91	13.182376618139
3	139087	26.01	13.303764528253
3	139644	26.11	13.43029264896
3	140201	26.21	13.561037532686
3	140758	26.31	13.695241630788
3	141315	26.41	13.83228348952
3	141872	26.51	13.971653300362
3	142429	26.61	14.112932842758
3	142986	26.71	14.255779030189
3	143543	26.81	14.39991041221
3	144100	26.91	14.545049017674
3	144665	27.01	14.687585693517
3	145222	27.11	14.821078865042
3	145779	27.21	14.939631290159
3	146336	27.31	15.03826688263
3	146893	27.41	15.112941747789
3	147450	27.51	15.160541546767
3	148007	27.61	15.17889322306
3	148564	27.71	15.168330374919
3	149121	27.81	15.132717405387
3	149678	27.91	15.076554611359
3	150243	28.01	15.003533803743
3	150800	28.11	14.91668355334
3	151357	28.21	14.818488343061
3	151914	28.31	14.710986314233
3	152471	28.41	14.595849452632
3	153028	28.51	14.474449368947
3	153585	28.61	14.347911261671
3	154142	28.71	14.21715818548
3	154699	28.81	14.082947366705
3	155256	28.91	13.945899994678
3	155821	29.01	13.806525661016
3	156378	29.11	13.665242408331
3	156935	29.21	13.522393177171
3	157492	29.31	13.378259298231
3	158049	29.41	13.23311856794
3	158606	29.51	13.090575573438
3	159163	29.61	12.957070340203
3	159720	29.71	12.838501358414
3	160277	29.81	12.739845818791
3	160834	29.91	12.665148582879
3	161399	30.01	12.617524826186
3	161956	30.11	12.59914837223
3	162513	30.21	12.609689194843
3	163070	30.31	12.645284095771
3	163627	30.41	12.701432067251
3	164184	30.51	12.774440715214
3	164741	30.61	12.861280990466
3	165298	30.71	12.959468017648
3	165855	30.81	13.066963333485
3	166412	30.91	13.182094688096
3	166977	31.01	13.303490254132
3	167534	31.11	13.43002465536
3	168091	31.21	13.560774691303
3	168648	31.31	13.694983016015
3	169205	31.41	13.832028342041
3	169762	31.51	13.971400997271
3	170319	31.61	14.112682873057
3	170876	31.71	14.255530974679
3	171433	31.81	14.399663927005
3	171990	31.91	14.544803868766
3	172555	32.01	14.687344518393
3	173112	32.11	14.82084527549
3	173669	32.21	14.939408113045
3	174226	32.31	15.038056250216
3	174783	32.41	15.112745184271
3	175340	32.51	15.16036005018
3	175897	32.61	15.178727309066
3	176454	32.71	15.16817831271
3	177011	32.81	15.132576706465
3	177568	32.91	15.07642323429
3	178133	33.01	15.003410073841
3	178690	33.11	14.91656609678
3	179247	33.21	14.818376032824
3	179804	33.31	14.710878225775
3	180361	33.41	14.595744827503
3	180918	33.51	14.474347584953
3	181475	33.61	14.347811808398
3	182032	33.71	14.21706064421
3	182589	33.81	14.082851393943
3	183146	33.91	13.94580530864
3	183711	34.01	13.806432030538
3	184268	34.11	13.665149643781
3	184825	34.21	13.522301122983
3	185382	34.31	13.378167826789
3	185939	34.41	13.233027592401
3	186496	34.51	13.090486072583
3	187053	34.61	12.956983654378
3	187610	34.71	12.838418536677
3	188167	34.81	12.739767652433
3	188724	34.91	12.665075637532
3	189289	35.01	12.617457472225
3	189846	35.11	12.59908680102
3	190403	35.21	12.609632764073
3	190960	35.31	12.645231881954
3	191517	35.41	12.701383312803
3	192074	35.51	12.774394798654
3	192631	35.61	12.861237401962
3	193188	35.71	12.959426338962
3	193745	35.81	13.066923221514
3	194302	35.91	13.182055861377
3	194867	36.01	13.303452481767
3	195424	36.11	13.429987747933
3	195981	36.21	13.560738493426
3	196538	36.31	13.694947400217
1	232	1.11	0
1	788	1.21	0
1	1344	1.31	0
1	1900	1.41	0
1	2456	1.51	0
1	3012	1.61	0
1	3568	1.71	0
1	4124	1.81	0
1	4680	1.91	0
1	5244	2.01	0
1	5800	2.11	0
1	6356	2.21	0
1	6912	2.31	0
1	7468	2.41	0
1	8024	2.51	0
1	8580	2.61	0
1	9136	2.71	0
1	9692	2.81	0
1	10248	2.91	0
1	10812	3.01	0
1	11368	3.11	0
1	11924	3.21	0
1	12480	3.31	0
1	13036	3.41	0
1	13592	3.51	0
1	14148	3.61	0
1	14704	3.71	0
1	15260	3.81	0
1	15816	3.91	0
1	16380	4.01	0
1	16936	4.11	0
1	17492	4.21	0
1	18048	4.31	0
1	18604	4.41	0
1	19160	4.51	0
1	19716	4.61	0
1	20272	4.71	0
1	20828	4.81	0
1	21384	4.91	0
1	21949	5.01	0
1	22506	5.11	0
1	23063	5.21	0
1	23620	5.31	0
1	24177	5.41	0
1	24734	5.51	0
1	25291	5.61	0
1	25848	5.71	0
1	26405	5.81	0
1	26962	5.91	0
1	27527	6.01	0
1	28084	6.11	0
1	28641	6.21	0
1	29198	6.31	0
1	29755	6.41	0
1	30312	6.51	0
1	30869	6.61	0
1	31426	6.71	0
1	31983	6.81	0
1	32540	6.91	0
1	33105	7.01	0
1	33662	7.11	0
1	34219	7.21	0
1	34776	7.31	0
1	35333	7.41	0
1	35890	7.51	0
1	36447	7.61	0
1	37004	7.71	0
1	37561	7.81	0
1	38118	7.91	0
1	38683	8.01	0
1	39240	8.11	0
1	39797	8.21	0
1	40354	8.31	0
1	40911	8.41	0
1	41468	8.51	0
1	42025	8.61	0
1	42582	8.71	0
1	43139	8.81	0
1	43696	8.91	0
1	44261	9.01	0
1	44818	9.11	0
1	45375	9.21	0
1	45932	9.31	0
1	46489	9.41	0
1	47046	9.51	0
1	47603	9.61	0
1	48160	9.71	0
1	48717	9.81	0
1	49274	9.91	0
1	49839	10.01	0
1	50396	10.11	0
1	50953	10.21	0
1	51510	10.31	0
1	52067	10.41	0
1	52624	10.51	0
1	53181	10.61	0
1	53738	10.71	0
1	54295	10.81	0
1	54852	10.91	0
1	55417	11.01	0
1	55974	11.11	0
1	56531	11.21	0
1	57088	11.31	0
1	57645	11.41	0
1	58202	11.51	0
1	58759	11.61	0
1	59316	11.71	0
1	59873	11.81	0
1	60430	11.91	0
1	60995	12.01	0
1	61552	12.11	0
1	62109	12.21	0
1	62666	12.31	0
1	63223	12.41	0
1	63780	12.51	0
1	64337	12.61	0
1	64894	12.71	0
1	65451	12.81	0
1	66008	12.91	0
1	66573	13.01	0
1	67130	13.11	0
1	67687	13.21	0
1	68244	13.31	0
1	68801	13.41	0
1	69358	13.51	0
1	69915	13.61	0
1	70472	13.71	0
1	71029	13.81	0
1	71586	13.91	0
1	72151	14.01	0
1	72708	14.11	0
1	73265	14.21	0
1	73822	14.31	0
1	74379	14.41	0
1	74936	14.51	0
1	75493	14.61	0
1	76050	14.71	0
1	76607	14.81	0
1	77164	14.91	0
1	77729	15.01	0
1	78286	15.11	0
1	78843	15.21	0
1	79400	15.31	0
1	79957	15.41	0
1	80514	15.51	0
1	81071	15.61	0
1	81628	15.71	0
1	82185	15.81	0
1	82742	15.91	0
1	83307	16.01	0
1	83864	16.11	0
1	84421	16.21	0
1	84978	16.31	0
1	85535	16.41	0
1	86092	16.51	0
1	86649	16.61	0
1	87206	16.71	0
1	87763	16.81	0
1	88320	16.91	0
1	88885	17.01	0
1	89442	17.11	0
1	89999	17.21	0
1	90556	17.31	0
1	91113	17.41	0
1	91670	17.51	0
1	92227	17.61	0
1	92784	17.71	0
1	93341	17.81	0
1	93898	17.91	0
1	94463	18.01	0
1	95020	18.11	0
1	95577	18.21	0
1	96134	18.31	0
1	96691	18.41	0
1	97248	18.51	0
1	97805	18.61	0
1	98362	18.71	0
1	98919	18.81	0
1	99476	18.91	0
1	100041	19.01	0
1	100598	19.11	0
1	101155	19.21	0
1	101712	19.31	0
1	102269	19.41	0
1	102826	19.51	0
1	103383	19.61	0
1	103940	19.71	0
1	104497	19.81	0
1	105054	19.91	0
1	105619	20.01	0
1	106176	20.11	0
1	106733	20.21	0
1	107290	20.31	0
1	107847	20.41	0
1	108404	20.51	0
1	108961	20.61	0
1	109518	20.71	0
1	110075	20.81	0
1	110632	20.91	0
1	111197	21.01	0
1	111754	21.11	0
1	112311	21.21	0
1	112868	21.31	0
1	113425	21.41	0
1	113982	21.51	0
1	114539	21.61	0
1	115096	21.71	0
1	115653	21.81	0
1	116210	21.91	0
1	116775	22.01	0
1	117332	22.11	0
1	117889	22.21	0
1	118446	22.31	0
1	119003	22.41	0
1	119560	22.51	0
1	120117	22.61	0
1	120674	22.71	0
1	121231	22.81	0
1	121788	22.91	0
1	122353	23.01	0
1	122910	23.11	0
1	123467	23.21	0
1	124024	23.31	0
1	124581	23.41	0
1	125138	23.51	0
1	125695	23.61	0
1	126252	23.71	0
1	126809	23.81	0
1	127366	23.91	0
1	127931	24.01	0
1	128488	24.11	0
1	129045	24.21	0
1	129602	24.31	0
1	130159	24.41	0
1	130716	24.51	0
1	131273	24.61	0
1	131830	24.71	0
1	132387	24.81	0
1	132944	24.91	0
1	133509	25.01	0
1	134066	25.11	0
1	134623	25.21	0
1	135180	25.31	0
1	135737	25.41	0
1	136294	25.51	0
1	136851	25.61	0
1	137408	25.71	0
1	137965	25.81	0
1	138522	25.91	0
1	139087	26.01	0
1	139644	26.11	0
1	140201	26.21	0
1	140758	26.31	0
1	141315	26.41	0
1	141872	26.51	0
1	142429	26.61	0
1	142986	26.71	0
1	143543	26.81	0
1	144100	26.91	0
1	144665	27.01	0
1	145222	27.11	0
1	145779	27.21	0
1	146336	27.31	0
1	146893	27.41	0
1	147450	27.51	0
1	148007	27.61	0
1	148564	27.71	0
1	149121	27.81	0
1	149678	27.91	0
1	150243	28.01	0
1	150800	28.11	0
1	151357	28.21	0
1	151914	28.31	0
1	152471	28.41	0
1	153028	28.51	0
1	153585	28.61	0
1	154142	28.71	0
1	154699	28.81	0
1	155256	28.91	0
1	155821	29.01	0
1	156378	29.11	0
1	156935	29.21	0
1	157492	29.31	0
1	158049	29.41	0
1	158606	29.51	0
1	159163	29.61	0
1	159720	29.71	0
1	160277	29.81	0
1	160834	29.91	0
1	161399	30.01	0
1	161956	30.11	0
1	162513	30.21	0
1	163070	30.31	0
1	163627	30.41	0
1	164184	30.51	0
1	164741	30.61	0
1	165298	30.71	0
1	165855	30.81	0
1	166412	30.91	0
1	166977	31.01	0
1	167534	31.11	0
1	168091	31.21	0
1	168648	31.31	0
1	169205	31.41	0
1	169762	31.51	0
1	170319	31.61	0
1	170876	31.71	0
1	171433	31.81	0
1	171990	31.91	0
1	172555	32.01	0
1	173112	32.11	0
1	173669	32.21	0
1	174226	32.31	0
1	174783	32.41	0
1	175340	32.51	0
1	175897	32.61	0
1	176454	32.71	0
1	177011	32.81	0
1	177568	32.91	0
1	178133	33.01	0
1	178690	33.11	0
1	179247	33.21	0
1	179804	33.31	0
1	180361	33.41	0
1	180918	33.51	0
1	181475	33.61	0
1	182032	33.71	0
1	182589	33.81	0
1	183146	33.91	0
1	183711	34.01	0
1	184268	34.11	0
1	184825	34.21	0
1	185382	34.31	0
1	185939	34.41	0
1	186496	34.51	0
1	187053	34.61	0
1	187610	34.71	0
1	188167	34.81	0
1	188724	34.91	0
1	189289	35.01	0
1	189846	35.11	0
1	190403	35.21	0
1	190960	35.31	0
1	191517	35.41	0
1	192074	35.51	0
1	192631	35.61	0
1	193188	35.71	0
1	193745	35.81	0
1	194302	35.91	0
1	194867	36.01	0
1	195424	36.11	0
1	195981	36.21	0
1	196538	36.31	0
0	232	1.11	-1
0	788	1.21	-1
0	1344	1.31	-1
0	1900	1.41	-1
0	2456	1.51	-1
0	3012	1.61	-1
0	3568	1.71	-1
0	4124	1.81	-1
0	4680	1.91	-1
0	5244	2.01	-1
0	5800	2.11	-1
0	6356	2.21	-1
0	6912	2.31	-1
0	7468	2.41	-1
0	8024	2.51	-1
0	8580	2.61	-1
0	9136	2.71	-1
0	9692	2.81	-1
0	10248	2.91	-1
0	10812	3.01	-1
0	11368	3.11	-1
0	11924	3.21	-1
0	12480	3.31	-1
0	13036	3.41	-1
0	13592	3.51	-1
0	14148	3.61	-1
0	14704	3.71	-1
0	15260	3.81	-1
0	15816	3.91	-1
0	16380	4.01	-1
0	16936	4.11	-1
0	17492	4.21	-1
0	18048	4.31	-1
0	18604	4.41	-1
0	19160	4.51	-1
0	19716	4.61	-1
0	20272	4.71	-1
0	20828	4.81	-1
0	21384	4.91	-1
0	21949	5.01	-1
0	22506	5.11	-1
0	23063	5.21	-1
0	23620	5.31	-1
0	24177	5.41	-1
0	24734	5.51	-1
0	25291	5.61	-1
0	25848	5.71	-1
0	26405	5.81	-1
0	26962	5.91	-1
0	27527	6.01	-1
0	28084	6.11	-1
0	28641	6.21	-1
0	29198	6.31	-1
0	29755	6.41	-1
0	30312	6.51	-1
0	30869	6.61	-1
0	31426	6.71	-1
0	31983	6.81	-1
0	32540	6.91	-1
0	33105	7.01	-1
0	33662	7.11	-1
0	34219	7.21	-1
0	34776	7.31	-1
0	35333	7.41	-1
0	35890	7.51	-1
0	36447	7.61	-1
0	37004	7.71	-1
0	37561	7.81	-1
0	38118	7.91	-1
0	38683	8.01	-1
0	39240	8.11	-1
0	39797	8.21	-1
0	40354	8.31	-1
0	40911	8.41	-1
0	41468	8.51	-1
0	42025	8.61	-1
0	42582	8.71	-1
0	43139	8.81	-1
0	43696	8.91	-1
0	44261	9.01	-1
0	44818	9.11	-1
0	45375	9.21	-1
0	45932	9.31	-1
0	46489	9.41	-1
0	47046	9.51	-1
0	47603	9.61	-1
0	48160	9.71	-1
0	48717	9.81	-1
0	49274	9.91	-1
0	49839	10.01	-1
0	50396	10.11	-1
0	50953	10.21	-1
0	51510	10.31	-1
0	52067	10.41	-1
0	52624	10.51	-1
0	53181	10.61	-1
0	53738	10.71	-1
0	54295	10.81	-1
0	54852	10.91	-1
0	55417	11.01	-1
0	55974	11.11	-1
0	56531	11.21	-1
0	57088	11.31	-1
0	57645	11.41	-1
0	58202	11.51	-1
0	58759	11.61	-1
0	59316	11.71	-1
0	59873	11.81	-1
0	60430	11.91	-1
0	60995	12.01	-1
0	61552	12.11	-1
0	62109	12.21	-1
0	62666	12.31	-1
0	63223	12.41	-1
0	63780	12.51	-1
0	64337	12.61	-1
0	64894	12.71	-1
0	65451	12.81	-1
0	66008	12.91	-1
0	66573	13.01	-1
0	67130	13.11	-1
0	67687	13.21	-1
0	68244	13.31	-1
0	68801	13.41	-1
0	69358	13.51	-1
0	69915	13.61	-1
0	70472	13.71	-1
0	71029	13.81	-1
0	71586	13.91	-1
0	72151	14.01	-1
0	72708	14.11	-1
0	73265	14.21	-1
0	73822	14.31	-1
0	74379	14.41	-1
0	74936	14.51	-1
0	75493	14.61	-1
0	76050	14.71	-1
0	76607	14.81	-1
0	77164	14.91	-1
0	77729	15.01	-1
0	78286	15.11	-1
0	78843	15.21	-1
0	79400	15.31	-1
0	79957	15.41	-1
0	80514	15.51	-1
0	81071	15.61	-1
0	81628	15.71	-1
0	82185	15.81	-1
0	82742	15.91	-1
0	83307	16.01	-1
0	83864	16.11	-1
0	84421	16.21	-1
0	84978	16.31	-1
0	85535	16.41	-1
0	86092	16.51	-1
0	86649	16.61	-1
0	87206	16.71	-1
0	87763	16.81	-1
0	88320	16.91	-1
0	88885	17.01	-1
0	89442	17.11	-1
0	89999	17.21	-1
0	90556	17.31	-1
0	91113	17.41	-1
0	91670	17.51	-1
0	92227	17.61	-1
0	92784	17.71	-1
0	93341	17.81	-1
0	93898	17.91	-1
0	94463	18.01	-1
0	95020	18.11	-1
0	95577	18.21	-1
0	96134	18.31	-1
0	96691	18.41	-1
0	97248	18.51	-1
0	97805	18.61	-1
0	98362	18.71	-1
0	98919	18.81	-1
0	99476	18.91	-1
0	100041	19.01	-1
0	100598	19.11	-1
0	101155	19.21	-1
0	101712	19.31	-1
0	102269	19.41	-1
0	102826	19.51	-1
0	103383	19.61	-1
0	103940	19.71	-1
0	104497	19.81	-1
0	105054	19.91	-1
0	105619	20.01	-1
0	106176	20.11	-1
0	106733	20.21	-1
0	107290	20.31	-1
0	107847	20.41	-1
0	108404	20.51	-1
0	108961	20.61	-1
0	109518	20.71	-1
0	110075	20.81	-1
0	110632	20.91	-1
0	111197	21.01	-1
0	111754	21.11	-1
0	112311	21.21	-1
0	112868	21.31	-1
0	113425	21.41	-1
0	113982	21.51	-1
0	114539	21.61	-1
0	115096	21.71	-1
0	115653	21.81	-1
0	116210	21.91	-1
0	116775	22.01	-1
0	117332	22.11	-1
0	117889	22.21	-1
0	118446	22.31	-1
0	119003	22.41	-1
0	119560	22.51	-1
0	120117	22.61	-1
0	120674	22.71	-1
0	121231	22.81	-1
0	121788	22.91	-1
0	122353	23.01	-1
0	122910	23.11	-1
0	123467	23.21	-1
0	124024	23.31	-1
0	124581	23.41	-1
0	125138	23.51	-1
0	125695	23.61	-1
0	126252	23.71	-1
0	126809	23.81	-1
0	127366	23.91	-1
0	127931	24.01	-1
0	128488	24.11	-1
0	129045	24.21	-1
0	129602	24.31	-1
0	130159	24.41	-1
0	130716	24.51	-1
0	131273	24.61	-1
0	131830	24.71	-1
0	132387	24.81	-1
0	132944	24.91	-1
0	133509	25.01	-1
0	134066	25.11	-1
0	134623	25.21	-1
0	135180	25.31	-1
0	135737	25.41	-1
0	136294	25.51	-1
0	136851	25.61	-1
0	137408	25.71	-1
0	137965	25.81	-1
0	138522	25.91	-1
0	139087	26.01	-1
0	139644	26.11	-1
0	140201	26.21	-1
0	140758	26.31	-1
0	141315	26.41	-1
0	141872	26.51	-1
0	142429	26.61	-1
0	142986	26.71	-1
0	143543	26.81	-1
0	144100	26.91	-1
0	144665	27.01	-1
0	145222	27.11	-1
0	145779	27.21	-1
0	146336	27.31	-1
0	146893	27.41	-1
0	147450	27.51	-1
0	148007	27.61	-1
0	148564	27.71	-1
0	149121	27.81	-1
0	149678	27.91	-1
0	150243	28.01	-1
0	150800	28.11	-1
0	151357	28.21	-1
0	151914	28.31	-1
0	152471	28.41	-1
0	153028	28.51	-1
0	153585	28.61	-1
0	154142	28.71	-1
0	154699	28.81	-1
0	155256	28.91	-1
0	155821	29.01	-1
0	156378	29.11	-1
0	156935	29.21	-1
0	157492	29.31	-1
0	158049	29.41	-1
0	158606	29.51	-1
0	159163	29.61	-1
0	159720	29.71	-1
0	160277	29.81	-1
0	160834	29.91	-1
0	161399	30.01	-1
0	161956	30.11	-1
0	162513	30.21	-1
0	163070	30.31	-1
0	163627	30.41	-1
0	164184	30.51	-1
0	164741	30.61	-1
0	165298	30.71	-1
0	165855	30.81	-1
0	166412	30.91	-1
0	166977	31.01	-1
0	167534	31.11	-1
0	168091	31.21	-1
0	168648	31.31	-1
0	169205	31.41	-1
0	169762	31.51	-1
0	170319	31.61	-1
0	170876	31.71	-1
0	171433	31.81	-1
0	171990	31.91	-1
0	172555	32.01	-1
0	173112	32.11	-1
0	173669	32.21	-1
0	174226	32.31	-1
0	174783	32.41	-1
0	175340	32.51	-1
0	175897	32.61	-1
0	176454	32.71	-1
0	177011	32.81	-1
0	177568	32.91	-1
0	178133	33.01	-1
0	178690	33.11	-1
0	179247	33.21	-1
0	179804	33.31	-1
0	180361	33.41	-1
0	180918	33.51	-1
0	181475	33.61	-1
0	182032	33.71	-1
0	182589	33.81	-1
0	183146	33.91	-1
0	183711	34.01	-1
0	184268	34.11	-1
0	184825	34.21	-1
0	185382	34.31	-1
0	185939	34.41	-1
0	186496	34.51	-1
0	187053	34.61	-1
0	187610	34.71	-1
0	188167	34.81	-1
0	188724	34.91	-1
0	189289	35.01	-1
0	189846	35.11	-1
0	190403	35.21	-1
0	190960	35.31	-1
0	191517	35.41	-1
0	192074	35.51	-1
0	192631	35.61	-1
0	193188	35.71	-1
0	193745	35.81	-1
0	194302	35.91	-1
0	194867	36.01	-1
0	195424	36.11	-1
0	195981	36.21	-1
0	196538	36.31	-1
2	232	1.11	0
2	788	1.21	0
2	1344	1.31	0
2	1900	1.41	0
2	2456	1.51	0
2	3012	1.61	0
2	3568	1.71	0
2	4124	1.81	0
2	4680	1.91	0
2	5244	2.01	0
2	5800	2.11	0
2	6356	2.21	0
2	6912	2.31	0
2	7468	2.41	0
2	8024	2.51	0
2	8580	2.61	0
2	9136	2.71	0
2	9692	2.81	0
2	10248	2.91	0
2	10812	3.01	0
2	11368	3.11	0
2	11924	3.21	0
2	12480	3.31	0
2	13036	3.41	0
2	13592	3.51	0
2	14148	3.61	0
2	14704	3.71	0
2	15260	3.81	0
2	15816	3.91	0
2	16380	4.01	0
2	16936	4.11	0
2	17492	4.21	0
2	18048	4.31	0
2	18604	4.41	0
2	19160	4.51	0
2	19716	4.61	0
2	20272	4.71	0
2	20828	4.81	0
2	21384	4.91	0
2	21949	5.01	0
2	22506	5.11	0
2	23063	5.21	0
2	23620	5.31	0
2	24177	5.41	0
2	24734	5.51	0
2	25291	5.61	0
2	25848	5.71	0
2	26405	5.81	0
2	26962	5.91	0
2	27527	6.01	0
2	28084	6.11	0
2	28641	6.21	0
2	29198	6.31	0
2	29755	6.41	0
2	30312	6.51	0
2	30869	6.61	0
2	31426	6.71	0
2	31983	6.81	0
2	32540	6.91	0
2	33105	7.01	0
2	33662	7.11	0
2	34219	7.21	0
2	34776	7.31	0
2	35333	7.41	0
2	35890	7.51	0
2	36447	7.61	0
2	37004	7.71	0
2	37561	7.81	0
2	38118	7.91	0
2	38683	8.01	0
2	39240	8.11	0
2	39797	8.21	0
2	40354	8.31	0
2	40911	8.41	0
2	41468	8.51	0
2	42025	8.61	0
2	42582	8.71	0
2	43139	8.81	0
2	43696	8.91	0
2	44261	9.01	0
2	44818	9.11	0
2	45375	9.21	0
2	45932	9.31	0
2	46489	9.41	0
2	47046	9.51	0
2	47603	9.61	0
2	48160	9.71	0
2	48717	9.81	0
2	49274	9.91	0
2	49839	10.01	0
2	50396	10.11	0
2	50953	10.21	0
2	51510	10.31	0
2	52067	10.41	0
2	52624	10.51	0
2	53181	10.61	0
2	53738	10.71	0
2	54295	10.81	0
2	54852	10.91	0
2	55417	11.01	0
2	55974	11.11	0
2	56531	11.21	0
2	57088	11.31	0
2	57645	11.41	0
2	58202	11.51	0
2	58759	11.61	0
2	59316	11.71	0
2	59873	11.81	0
2	60430	11.91	0
2	60995	12.01	0
2	61552	12.11	0
2	62109	12.21	0
2	62666	12.31	0
2	63223	12.41	0
2	63780	12.51	0
2	64337	12.61	0
2	64894	12.71	0
2	65451	12.81	0
2	66008	12.91	0
2	66573	13.01	0
2	67130	13.11	0
2	67687	13.21	0
2	68244	13.31	0
2	68801	13.41	0
2	69358	13.51	0
2	69915	13.61	0
2	70472	13.71	0
2	71029	13.81	0
2	71586	13.91	0
2	72151	14.01	0
2	72708	14.11	0
2	73265	14.21	0
2	73822	14.31	0
2	74379	14.41	0
2	74936	14.51	0
2	75493	14.61	0
2	76050	14.71	0
2	76607	14.81	0
2	77164	14.91	0
2	77729	15.01	0
2	78286	15.11	0
2	78843	15.21	0
2	79400	15.31	0
2	79957	15.41	0
2	80514	15.51	0
2	81071	15.61	0
2	81628	15.71	0
2	82185	15.81	0
2	82742	15.91	0
2	83307	16.01	0
2	83864	16.11	0
2	84421	16.21	0
2	84978	16.31	0
2	85535	16.41	0
2	86092	16.51	0
2	86649	16.61	0
2	87206	16.71	0
2	87763	16.81	0
2	88320	16.91	0
2	88885	17.01	0
2	89442	17.11	0
2	89999	17.21	0
2	90556	17.31	0
2	91113	17.41	0
2	91670	17.51	0
2	92227	17.61	0
2	92784	17.71	0
2	93341	17.81	0
2	93898	17.91	0
2	94463	18.01	0
2	95020	18.11	0
2	95577	18.21	0
2	96134	18.31	0
2	96691	18.41	0
2	97248	18.51	0
2	97805	18.61	0
2	98362	18.71	0
2	98919	18.81	0
2	99476	18.91	0
2	100041	19.01	0
2	100598	19.11	0
2	101155	19.21	0
2	101712	19.31	0
2	102269	19.41	0
2	102826	19.51	0
2	103383	19.61	0
2	103940	19.71	0
2	104497	19.81	0
2	105054	19.91	0
2	105619	20.01	0
2	106176	20.11	0
2	106733	20.21	0
2	107290	20.31	0
2	107847	20.41	0
2	108404	20.51	0
2	108961	20.61	0
2	109518	20.71	0
2	110075	20.81	0
2	110632	20.91	0
2	111197	21.01	0
2	111754	21.11	0
2	112311	21.21	0
2	112868	21.31	0
2	113425	21.41	0
2	113982	21.51	0
2	114539	21.61	0
2	115096	21.71	0
2	115653	21.81	0
2	116210	21.91	0
2	116775	22.01	0
2	117332	22.11	0
2	117889	22.21	0
2	118446	22.31	0
2	119003	22.41	0
2	119560	22.51	0
2	120117	22.61	0
2	120674	22.71	0
2	121231	22.81	0
2	121788	22.91	0
2	122353	23.01	0
2	122910	23.11	0
2	123467	23.21	0
2	124024	23.31	0
2	124581	23.41	0
2	125138	23.51	0
2	125695	23.61	0
2	126252	23.71	0
2	126809	23.81	0
2	127366	23.91	0
2	127931	24.01	0
2	128488	24.11	0
2	129045	24.21	0
2	129602	24.31	0
2	130159	24.41	0
2	130716	24.51	0
2	131273	24.61	0
2	131830	24.71	0
2	132387	24.81	0
2	132944	24.91	0
2	133509	25.01	0
2	134066	25.11	0
2	134623	25.21	0
2	135180	25.31	0
2	135737	25.41	0
2	136294	25.51	0
2	136851	25.61	0
2	137408	25.71	0
2	137965	25.81	0
2	138522	25.91	0
2	139087	26.01	0
2	139644	26.11	0
2	140201	26.21	0
2	140758	26.31	0
2	141315	26.41	0
2	141872	26.51	0
2	142429	26.61	0
2	142986	26.71	0
2	143543	26.81	0
2	144100	26.91	0
2	144665	27.01	0
2	145222	27.11	0
2	145779	27.21	0
2	146336	27.31	0
2	146893	27.41	0
2	147450	27.51	0
2	148007	27.61	0
2	148564	27.71	0
2	149121	27.81	0
2	149678	27.91	0
2	150243	28.01	0
2	150800	28.11	0
2	151357	28.21	0
2	151914	28.31	0
2	152471	28.41	0
2	153028	28.51	0
2	153585	28.61	0
2	154142	28.71	0
2	154699	28.81	0
2	155256	28.91	0
2	155821	29.01	0
2	156378	29.11	0
2	156935	29.21	0
2	157492	29.31	0
2	158049	29.41	0
2	158606	29.51	0
2	159163	29.61	0
2	159720	29.71	0
2	160277	29.81	0
2	160834	29.91	0
2	161399	30.01	0
2	161956	30.11	0
2	162513	30.21	0
2	163070	30.31	0
2	163627	30.41	0
2	164184	30.51	0
2	164741	30.61	0
2	165298	30.71	0
2	165855	30.81	0
2	166412	30.91	0
2	166977	31.01	0
2	167534	31.11	0
2	168091	31.21	0
2	168648	31.31	0
2	169205	31.41	0
2	169762	31.51	0
2	170319	31.61	0
2	170876	31.71	0
2	171433	31.81	0
2	171990	31.91	0
2	172555	32.01	0
2	173112	32.11	0
2	173669	32.21	0
2	174226	32.31	0
2	174783	32.41	0
2	175340	32.51	0
2	175897	32.61	0
2	176454	32.71	0
2	177011	32.81	0
2	177568	32.91	0
2	178133	33.01	0
2	178690	33.11	0
2	179247	33.21	0
2	179804	33.31	0
2	180361	33.41	0
2	180918	33.51	0
2	181475	33.61	0
2	182032	33.71	0
2	182589	33.81	0
2	183146	33.91	0
2	183711	34.01	0
2	184268	34.11	0
2	184825	34.21	0
2	185382	34.31	0
2	185939	34.41	0
2	186496	34.51	0
2	187053	34.61	0
2	187610	34.71	0
2	188167	34.81	0
2	188724	34.91	0
2	189289	35.01	0
2	189846	35.11	0
2	190403	35.21	0
2	190960	35.31	0
2	191517	35.41	0
2	192074	35.51	0
2	192631	35.61	0
2	193188	35.71	0
2	193745	35.81	0
2	194302	35.91	0
2	194867	36.01	0
2	195424	36.11	0
2	195981	36.21	0
2	196538	36.31	0
10	5056	2	0
10	10624	3	0
10	16192	4	0
10	21761	5	0
10	27338	6	0
10	32916	7	0
10	38494	8	0
10	44072	9	0
10	49650	10	0
10	55228	11	0
10	60806	12	0
10	66384	13	0
10	71962	14	0
10	77540	15	0
10	83118	16	0
10	88696	17	0
10	94274	18	0
10	99852	19	0
10	105430	20	0
10	111008	21	0
10	116586	22	0
10	122164	23	0
10	127742	24	0
10	133320	25	0
10	138898	26	0
10	144476	27	0
10	150054	28	0
10	155632	29	0
10	161210	30	0
10	166788	31	0
10	172366	32	0
10	177944	33	0
10	183522	34	0
10	189100	35	0
10	194678	36	0
9	5056	2	0.022762592108
9	10624	3	0.026243991
9	16192	4	0.026256991
9	21761	5	0.026243991
9	27338	6	0.026256989402
9	32916	7	0.026243975082
9	38494	8	0.026256959381
9	44072	9	0.026243965674
9	49650	10	0.026243984168
9	55228	11	0.026256996278
9	60806	12	0.026243986034
9	66384	13	0.026256970268
9	71962	14	0.026243974435
9	77540	15	0.026256992797
9	83118	16	0.026244003301
9	88696	17	0.026256991882
9	94274	18	0.026243975138
9	99852	19	0.026256978207
9	105430	20	0.026243995903
9	111008	21	0.026257005724
9	116586	22	0.026243993786
9	122164	23	0.026243976638
9	127742	24	0.026256979345
9	133320	25	0.026243996791
9	138898	26	0.026257006387
9	144476	27	0.026243994287
9	150054	28	0.026256977014
9	155632	29	0.026243979619
9	161210	30	0.026256996994
9	166788	31	0.026244006532
9	172366	32	0.026256994399
9	177944	33	0.026243981157
9	183522	34	0.026257051437
9	189100	35	0.026244297565
9	194678	36	0.026244707923
8	5056	2	0
8	10624	3	0
8	16192	4	0
8	21761	5	0
8	27338	6	0
8	32916	7	0
8	38494	8	0
8	44072	9	0
8	49650	10	0
8	55228	11	0
8	60806	12	0
8	66384	13	0
8	71962	14	0
8	77540	15	0
8	83118	16	0
8	88696	17	0
8	94274	18	0
8	99852	19	0
8	105430	20	0
8	111008	21	0
8	116586	22	0
8	122164	23	0
8	127742	24	0
8	133320	25	0
8	138898	26	0
8	144476	27	0
8	150054	28	0
8	155632	29	0
8	161210	30	0
8	166788	31	0
8	172366	32	0
8	177944	33	0
8	183522	34	0
8	189100	35	0
8	194678	36	0
51	234	1.11	0
51	790	1.21	-4.1932813946488e-07
51	1346	1.31	-4.0965449848329e-07
51	1902	1.41	-3.9444592285776e-07
51	2458	1.51	-3.7499218208836e-07
51	3014	1.61	-3.5242311490435e-07
51	3570	1.71	-3.2771781135921e-07
51	4126	1.81	-3.0171468694107e-07
51	4682	1.91	-2.7512215645231e-07
51	5246	2.01	-2.4852972195788e-07
51	5802	2.11	-2.2241916109778e-07
51	6358	2.21	-1.9717548266129e-07
51	6914	2.31	-1.7309769312135e-07
51	7470	2.41	-1.504090485227e-07
51	8026	2.51	-1.292668927988e-07
51	8582	2.61	-1.097718046239e-07
51	9138	2.71	-9.1976139131589e-08
51	9694	2.81	-7.5891825908059e-08
51	10250	2.91	-6.1497554497691e-08
51	10814	3.01	-4.8745193126365e-08
51	11370	3.11	-3.7565519406257e-08
51	11926	3.21	-2.7873314500937e-08
51	12482	3.31	-1.95718624596e-08
51	13038	3.41	-1.2556704334088e-08
51	13594	3.51	-6.7190178398846e-09
51	14150	3.61	-1.9483378466134e-09
51	14706	3.71	1.8651320488061e-09
51	15262	3.81	4.8286766940464e-09
51	15818	3.91	7.0455369183264e-09
51	16382	4.01	8.6137895038974e-09
51	16938	4.11	9.6254721881905e-09
51	17494	4.21	1.016607427573e-08
51	18050	4.31	1.031415042263e-08
51	18606	4.41	1.0141133088837e-08
51	19162	4.51	9.7113132468962e-09
51	19718	4.61	9.0819748521653e-09
51	20274	4.71	8.3036458775609e-09
51	20830	4.81	7.4203680000551e-09
51	21386	4.91	6.4701130142453e-09
51	21951	5.01	5.4851317088378e-09
51	22508	5.11	4.4924649600375e-09
51	23065	5.21	0.34731422749742
51	23622	5.31	0.68329657647777
51	24179	5.41	0.99759384592635
51	24736	5.51	1.2813014132626
51	25293	5.61	1.5117600133725
51	25850	5.71	1.5152444981299
[...]
35	115144	21.769558143903	0.099999300935
35	115701	21.869557445036	0.099999301133
35	116258	21.969556746372	0.099999301336
35	116823	22.069556047919	0.099999301547
35	117380	22.169555349672	0.099999301753
35	117937	22.269554651625	0.099999301953
35	118494	22.369566953768	0.100012302143
35	119051	22.469566256076	0.099999302308
35	119608	22.569565558523	0.099999302447
35	120165	22.669564861075	0.099999302552
35	120722	22.769564163693	0.099999302618
35	121279	22.869563466343	0.09999930265
35	121836	22.969562768988	0.099999302645
35	122401	23.069562071602	0.099999302614
35	122958	23.169561374156	0.099999302554
35	123515	23.26956067663	0.099999302474
35	124072	23.369559979005	0.099999302375
35	124629	23.469559281268	0.099999302263
35	125186	23.569558583403	0.099999302135
35	125743	23.669557885398	0.099999301995
35	126300	23.769557187242	0.099999301844
35	126857	23.869556488925	0.099999301683
35	127414	23.96955579044	0.099999301515
35	127979	24.069555091777	0.099999301337
35	128536	24.16955439293	0.099999301153
35	129093	24.26956669389	0.10001230096
35	129650	24.36956599465	0.09999930076
35	130207	24.469565295204	0.099999300554
35	130764	24.569564595547	0.099999300343
35	131321	24.669563895679	0.099999300132
35	131878	24.769563195607	0.099999299928
35	132435	24.869562495343	0.099999299736
35	132992	24.969561794912	0.099999299569
35	133557	25.069561094341	0.099999299429
35	134114	25.169560393662	0.099999299321
35	134671	25.269559692916	0.099999299254
35	135228	25.369558992137	0.099999299221
35	135785	25.469558291356	0.099999299219
35	136342	25.569557590609	0.099999299253
35	136899	25.66955688992	0.099999299311
35	137456	25.769556189306	0.099999299386
35	138013	25.869555488792	0.099999299486
35	138570	25.969554788389	0.099999299597
35	139135	26.069554088113	0.099999299724
35	139692	26.169566387975	0.100012299862
35	140249	26.269565687986	0.099999300011
35	140806	26.369564988155	0.099999300169
35	141363	26.469564288492	0.099999300337
35	141920	26.569563589004	0.099999300512
35	142477	26.669562889699	0.099999300695
35	143034	26.769562190588	0.099999300889
35	143591	26.869561491675	0.099999301087
35	144148	26.969560792966	0.099999301291
35	144713	27.069560094466	0.0999993015
35	145270	27.169559396176	0.09999930171
35	145827	27.26955869809	0.099999301914
35	146384	27.369558000191	0.099999302101
35	146941	27.469557302463	0.099999302272
35	147498	27.569556604873	0.09999930241
35	148055	27.669555907387	0.099999302514
35	148612	27.769555209971	0.099999302584
35	149169	27.869554512586	0.099999302615
35	149726	27.969566815198	0.100012302612
35	150291	28.069566117778	0.09999930258
35	150848	28.169565420303	0.099999302525
35	151405	28.269564722747	0.099999302444
35	151962	28.369564025093	0.099999302346
35	152519	28.469563327326	0.099999302233
35	153076	28.569562629435	0.099999302109
35	153633	28.669561931403	0.099999301968
35	154190	28.76956123322	0.099999301817
35	154747	28.869560534879	0.099999301659
35	155304	28.96955983637	0.099999301491
35	155869	29.069559137682	0.099999301312
35	156426	29.16955843881	0.099999301128
35	156983	29.269557739748	0.099999300938
35	157540	29.369557040486	0.099999300738
35	158097	29.469556341018	0.099999300532
35	158654	29.56955564134	0.099999300322
35	159211	29.669554941453	0.099999300113
35	159768	29.769554241362	0.099999299909
35	160325	29.869566541082	0.10001229972
35	160882	29.969565840633	0.099999299551
35	161447	30.069565140043	0.09999929941
35	162004	30.169564439349	0.099999299306
35	162561	30.269563738587	0.099999299238
35	163118	30.369563037792	0.099999299205
35	163675	30.469562336998	0.099999299206
35	164232	30.569561636236	0.099999299238
35	164789	30.669560935531	0.099999299295
35	165346	30.769560234904	0.099999299373
35	165903	30.869559534376	0.099999299472
35	166460	30.969558833961	0.099999299585
35	167025	31.069558133671	0.09999929971
35	167582	31.16955743352	0.099999299849
35	168139	31.269556733519	0.099999299999
35	168696	31.369556033676	0.099999300157
35	169253	31.469555334002	0.099999300326
35	169810	31.569554634506	0.099999300504
35	170367	31.669566935192	0.100012300686
35	170924	31.769566236072	0.09999930088
35	171481	31.86956553715	0.099999301078
35	172038	31.969564838432	0.099999301282
35	172603	32.069564139921	0.099999301489
35	173160	32.169563441616	0.099999301695
35	173717	32.2695627435	0.099999301884
35	174274	32.369562045548	0.099999302048
35	174831	32.469561347713	0.099999302165
35	175388	32.569560649932	0.099999302219
35	175945	32.669559952124	0.099999302192
35	176502	32.769559254183	0.099999302059
35	177059	32.869558555992	0.099999301809
35	177616	32.969557857413	0.099999301421
35	178181	33.069557158302	0.099999300889
35	178738	33.1695564585	0.099999300198
35	179295	33.269555757841	0.099999299341
35	179852	33.369555056153	0.099999298312
35	180409	33.469554353261	0.099999297108
35	180966	33.569566648981	0.10001229572
35	181523	33.669565943128	0.099999294147
35	182080	33.769565235516	0.099999292388
35	182637	33.869564525953	0.099999290437
35	183194	33.969563814243	0.09999928829
35	183759	34.069563100195	0.099999285952
35	184316	34.169562383611	0.099999283416
35	184873	34.269561664297	0.099999280686
35	185430	34.369560942053	0.099999277756
35	185987	34.469560216684	0.099999274631
35	186544	34.569559487992	0.099999271308
35	187101	34.669558755786	0.099999267794
35	187658	34.769558019884	0.099999264098
35	188215	34.869557280118	0.099999260234
35	188772	34.969556536336	0.099999256218
35	189337	35.069555788401	0.099999252065
35	189894	35.169555036198	0.099999247797
35	190451	35.269554279633	0.099999243435
35	191008	35.369566518627	0.100012238994
35	191565	35.469565753116	0.099999234489
35	192122	35.569564983047	0.099999229931
35	192679	35.66956420838	0.099999225333
35	193236	35.76956342908	0.0999992207
35	193793	35.86956264512	0.09999921604
35	194350	35.969561856477	0.099999211357
35	194915	36.069561063137	0.09999920666
35	195472	36.169560265087	0.09999920195
35	196029	36.26955946232	0.099999197233
35	196586	36.369558654831	0.099999192511
36	836	1.269558350935	0.0999993009
36	1392	1.369557651835	0.0999993009
36	1948	1.469556952735	0.0999993009
36	2504	1.569556253635	0.0999993009
36	3060	1.669555554535	0.0999993009
36	3616	1.769554855435	0.0999993009
36	4172	1.869554156335	0.0999993009
36	4728	1.969566457235	0.1000123009
36	5292	2.069565758135	0.0999993009
36	5848	2.169565059035	0.0999993009
36	6404	2.269564359935	0.0999993009
36	6960	2.369563660835	0.0999993009
36	7516	2.469562961735	0.0999993009
36	8072	2.569562262635	0.0999993009
36	8628	2.669561563535	0.0999993009
36	9184	2.769560864435	0.0999993009
36	9740	2.869560165335	0.0999993009
36	10296	2.969559466235	0.0999993009
36	10860	3.069558767135	0.0999993009
36	11416	3.169558068035	0.0999993009
36	11972	3.269557368935	0.0999993009
36	12528	3.369556669835	0.0999993009
36	13084	3.469555970735	0.0999993009
36	13640	3.569555271635	0.0999993009
36	14196	3.669554572535	0.0999993009
36	14752	3.769566873435	0.1000123009
36	15308	3.869566174335	0.0999993009
36	15864	3.969565475235	0.0999993009
36	16428	4.069564776135	0.0999993009
36	16984	4.169564077035	0.0999993009
36	17540	4.269563377935	0.0999993009
36	18096	4.369562678835	0.0999993009
36	18652	4.469561979735	0.0999993009
36	19208	4.569561280635	0.0999993009
36	19764	4.669560581535	0.0999993009
36	20320	4.769559882435	0.0999993009
36	20876	4.869559183335	0.0999993009
36	21432	4.969558484235	0.0999993009
36	21997	5.069557785135	0.0999993009
36	22554	5.169557086035	0.0999993009
36	23111	5.269556386936	0.099999300901
36	23668	5.369555687845	0.099999300909
36	24225	5.469554988776	0.099999300931
36	24782	5.569554289745	0.099999300969
36	25339	5.669566590775	0.10001230103
36	25896	5.769565891889	0.099999301114
36	26453	5.869565193111	0.099999301222
36	27010	5.969564494462	0.099999301351
36	27575	6.06956379596	0.099999301498
36	28132	6.169563097623	0.099999301663
36	28689	6.269562399462	0.099999301839
36	29246	6.369561701488	0.099999302026
36	29803	6.469561003713	0.099999302225
36	30360	6.569560306145	0.099999302432
36	30917	6.669559608792	0.099999302647
36	31474	6.769558911662	0.09999930287
36	32031	6.869558214752	0.09999930309
36	32588	6.969557518059	0.099999303307
36	33153	7.069556821573	0.099999303514
36	33710	7.169556125275	0.099999303702
36	34267	7.269555429144	0.099999303869
36	34824	7.369554733152	0.099999304008
36	35381	7.469554037265	0.099999304113
36	35938	7.569566341451	0.100012304186
36	36495	7.669565645673	0.099999304222
36	37052	7.7695649499	0.099999304227
36	37609	7.869564254098	0.099999304198
36	38166	7.969563558247	0.099999304149
36	38731	8.069562862326	0.099999304079
36	39288	8.169562166314	0.099999303988
36	39845	8.2695614702	0.099999303886
36	40402	8.369560773966	0.099999303766
36	40959	8.469560077603	0.099999303637
36	41516	8.569559381096	0.099999303493
36	42073	8.669558684438	0.099999303342
36	42630	8.769557987621	0.099999303183
36	43187	8.869557290634	0.099999303013
36	43744	8.969556593469	0.099999302835
36	44309	9.069555896119	0.09999930265
36	44866	9.169555198577	0.099999302458
36	45423	9.269554500835	0.099999302258
36	45980	9.369566802886	0.100012302051
36	46537	9.469566104725	0.099999301839
36	47094	9.569565406345	0.09999930162
36	47651	9.669564707743	0.099999301398
36	48208	9.769564008919	0.099999301176
36	48765	9.869563309883	0.099999300964
36	49322	9.969562610653	0.09999930077
36	49887	10.069561911251	0.099999300598
36	50444	10.169561211707	0.099999300456
36	51001	10.269560512058	0.099999300351
36	51558	10.369559812341	0.099999300283
36	52115	10.469559112595	0.099999300254
36	52672	10.569558412851	0.099999300256
36	53229	10.669557713139	0.099999300288
36	53786	10.769557013483	0.099999300344
36	54343	10.869556313903	0.09999930042
36	54900	10.969555614417	0.099999300514
36	55465	11.06955491504	0.099999300623
36	56022	11.169554215782	0.099999300742
36	56579	11.26956651666	0.100012300878
36	57136	11.369565817683	0.099999301023
36	57693	11.469565118858	0.099999301175
36	58250	11.569564420196	0.099999301338
36	58807	11.669563721705	0.099999301509
36	59364	11.769563023393	0.099999301688
36	59921	11.869562325267	0.099999301874
36	60478	11.969561627334	0.099999302067
36	61043	12.069560929598	0.099999302264
36	61600	12.169560232057	0.099999302459
36	62157	12.269559534706	0.099999302649
36	62714	12.369558837525	0.099999302819
36	63271	12.469558140493	0.099999302968
36	63828	12.569557443582	0.099999303089
36	64385	12.669556746755	0.099999303173
36	64942	12.769556049976	0.099999303221
36	65499	12.869555353212	0.099999303236
36	66056	12.969554656427	0.099999303215
36	66621	13.069566959593	0.100012303166
36	67178	13.169566262688	0.099999303095
36	67735	13.269565565686	0.099999302998
36	68292	13.369564868575	0.099999302889
36	68849	13.469564171338	0.099999302763
36	69406	13.569563473962	0.099999302624
36	69963	13.669562776437	0.099999302475
36	70520	13.769562078751	0.099999302314
36	71077	13.869561380895	0.099999302144
36	71634	13.96956068286	0.099999301965
36	72199	14.069559984639	0.099999301779
36	72756	14.169559286225	0.099999301586
36	73313	14.269558587609	0.099999301384
36	73870	14.369557888787	0.099999301178
36	74427	14.469557189749	0.099999300962
36	74984	14.569556490494	0.099999300745
36	75541	14.669555791019	0.099999300525
36	76098	14.769555091331	0.099999300312
36	76655	14.869554391444	0.099999300113
36	77212	14.969566691379	0.100012299935
36	77777	15.069565991164	0.099999299785
36	78334	15.169565290833	0.099999299669
36	78891	15.26956459042	0.099999299587
36	79448	15.369563889967	0.099999299547
36	80005	15.469563189503	0.099999299536
36	80562	15.569562489064	0.099999299561
36	81119	15.669561788673	0.099999299609
36	81676	15.769561088352	0.099999299679
36	82233	15.86956038812	0.099999299768
36	82790	15.969559687995	0.099999299875
36	83355	16.06955898799	0.099999299995
36	83912	16.169558288117	0.099999300127
36	84469	16.269557588385	0.099999300268
36	85026	16.369556888805	0.09999930042
36	85583	16.469556189388	0.099999300583
36	86140	16.569555490141	0.099999300753
36	86697	16.669554791071	0.09999930093
36	87254	16.769554092188	0.099999301117
36	87811	16.869566393499	0.100012301311
36	88368	16.969565695011	0.099999301512
36	88933	17.069564996726	0.099999301715
36	89490	17.169564298647	0.099999301921
36	90047	17.269563600765	0.099999302118
36	90604	17.369562903066	0.099999302301
36	91161	17.469562205531	0.099999302465
36	91718	17.569561508129	0.099999302598
36	92275	17.669560810825	0.099999302696
36	92832	17.769560113585	0.09999930276
36	93389	17.869559416372	0.099999302787
36	93946	17.969558719152	0.09999930278
36	94511	18.069558021895	0.099999302743
36	95068	18.169557324574	0.099999302679
36	95625	18.269556627171	0.099999302597
36	96182	18.369555929667	0.099999302496
36	96739	18.469555232046	0.099999302379
36	97296	18.569554534293	0.099999302247
36	97853	18.669566836399	0.100012302106
36	98410	18.76956613835	0.099999301951
36	98967	18.86956544014	0.09999930179
36	99524	18.969564741759	0.099999301619
36	100089	19.069564043197	0.099999301438
36	100646	19.169563344448	0.099999301251
36	101203	19.269562645503	0.099999301055
36	101760	19.369561946356	0.099999300853
36	102317	19.469561247	0.099999300644
36	102874	19.569560547431	0.099999300431
36	103431	19.66955984765	0.099999300219
36	103988	19.769559147663	0.099999300013
36	104545	19.869558447482	0.099999299819
36	105102	19.969557747132	0.09999929965
36	105667	20.06955704664	0.099999299508
36	106224	20.169556346036	0.099999299396
36	106781	20.269555645362	0.099999299326
36	107338	20.369554944652	0.09999929929
36	107895	20.469554243941	0.099999299289
36	108452	20.569566543262	0.100012299321
36	109009	20.669565842635	0.099999299373
36	109566	20.769565142085	0.09999929945
36	110123	20.869564441631	0.099999299546
36	110680	20.969563741287	0.099999299656
36	111245	21.069563041067	0.09999929978
36	111802	21.169562340984	0.099999299917
36	112359	21.269561641048	0.099999300064
36	112916	21.369560941271	0.099999300223
36	113473	21.46956024166	0.099999300389
36	114030	21.569559542222	0.099999300562
36	114587	21.669558842968	0.099999300746
36	115144	21.769558143903	0.099999300935
36	115701	21.869557445036	0.099999301133
36	116258	21.969556746372	0.099999301336
36	116823	22.069556047919	0.099999301547
36	117380	22.169555349672	0.099999301753
36	117937	22.269554651625	0.099999301953
36	118494	22.369566953768	0.100012302143
36	119051	22.469566256076	0.099999302308
36	119608	22.569565558523	0.099999302447
36	120165	22.669564861075	0.099999302552
36	120722	22.769564163693	0.099999302618
36	121279	22.869563466343	0.09999930265
36	121836	22.969562768988	0.099999302645
36	122401	23.069562071602	0.099999302614
36	122958	23.169561374156	0.099999302554
36	123515	23.26956067663	0.099999302474
36	124072	23.369559979005	0.099999302375
36	124629	23.469559281268	0.099999302263
36	125186	23.569558583403	0.099999302135
36	125743	23.669557885398	0.099999301995
36	126300	23.769557187242	0.099999301844
36	126857	23.869556488925	0.099999301683
36	127414	23.96955579044	0.099999301515
36	127979	24.069555091777	0.099999301337
36	128536	24.16955439293	0.099999301153
36	129093	24.26956669389	0.10001230096
36	129650	24.36956599465	0.09999930076
36	130207	24.469565295204	0.099999300554
36	130764	24.569564595547	0.099999300343
36	131321	24.669563895679	0.099999300132
36	131878	24.769563195607	0.099999299928
36	132435	24.869562495343	0.099999299736
36	132992	24.969561794912	0.099999299569
36	133557	25.069561094341	0.099999299429
36	134114	25.169560393662	0.099999299321
36	134671	25.269559692916	0.099999299254
36	135228	25.369558992137	0.099999299221
36	135785	25.469558291356	0.099999299219
36	136342	25.569557590609	0.099999299253
36	136899	25.66955688992	0.099999299311
36	137456	25.769556189306	0.099999299386
36	138013	25.869555488792	0.099999299486
36	138570	25.969554788389	0.099999299597
36	139135	26.069554088113	0.099999299724
36	139692	26.169566387975	0.100012299862
36	140249	26.269565687986	0.099999300011
36	140806	26.369564988155	0.099999300169
36	141363	26.469564288492	0.099999300337
36	141920	26.569563589004	0.099999300512
36	142477	26.669562889699	0.099999300695
36	143034	26.769562190588	0.099999300889
36	143591	26.869561491675	0.099999301087
36	144148	26.969560792966	0.099999301291
36	144713	27.069560094466	0.0999993015
36	145270	27.169559396176	0.09999930171
36	145827	27.26955869809	0.099999301914
36	146384	27.369558000191	0.099999302101
36	146941	27.469557302463	0.099999302272
36	147498	27.569556604873	0.09999930241
36	148055	27.669555907387	0.099999302514
36	148612	27.769555209971	0.099999302584
36	149169	27.869554512586	0.099999302615
36	149726	27.969566815198	0.100012302612
36	150291	28.069566117778	0.09999930258
36	150848	28.169565420303	0.099999302525
36	151405	28.269564722747	0.099999302444
36	151962	28.369564025093	0.099999302346
36	152519	28.469563327326	0.099999302233
36	153076	28.569562629435	0.099999302109
36	153633	28.669561931403	0.099999301968
36	154190	28.76956123322	0.099999301817
36	154747	28.869560534879	0.099999301659
36	155304	28.96955983637	0.099999301491
36	155869	29.069559137682	0.099999301312
36	156426	29.16955843881	0.099999301128
36	156983	29.269557739748	0.099999300938
36	157540	29.369557040486	0.099999300738
36	158097	29.469556341018	0.099999300532
36	158654	29.56955564134	0.099999300322
36	159211	29.669554941453	0.099999300113
36	159768	29.769554241362	0.099999299909
36	160325	29.869566541082	0.10001229972
36	160882	29.969565840633	0.099999299551
36	161447	30.069565140043	0.09999929941
36	162004	30.169564439349	0.099999299306
36	162561	30.269563738587	0.099999299238
36	163118	30.369563037792	0.099999299205
36	163675	30.469562336998	0.099999299206
36	164232	30.569561636236	0.099999299238
36	164789	30.669560935531	0.099999299295
36	165346	30.769560234904	0.099999299373
36	165903	30.869559534376	0.099999299472
36	166460	30.969558833961	0.099999299585
36	167025	31.069558133671	0.09999929971
36	167582	31.16955743352	0.099999299849
36	168139	31.269556733519	0.099999299999
36	168696	31.369556033676	0.099999300157
36	169253	31.469555334002	0.099999300326
36	169810	31.569554634506	0.099999300504
36	170367	31.669566935192	0.100012300686
36	170924	31.769566236072	0.09999930088
36	171481	31.86956553715	0.099999301078
36	172038	31.969564838432	0.099999301282
36	172603	32.069564139921	0.099999301489
36	173160	32.169563441616	0.099999301695
36	173717	32.2695627435	0.099999301884
36	174274	32.369562045548	0.099999302048
36	174831	32.469561347713	0.099999302165
36	175388	32.569560649932	0.099999302219
36	175945	32.669559952124	0.099999302192
36	176502	32.769559254183	0.099999302059
36	177059	32.869558555992	0.099999301809
36	177616	32.969557857413	0.099999301421
36	178181	33.069557158302	0.099999300889
36	178738	33.1695564585	0.099999300198
36	179295	33.269555757841	0.099999299341
36	179852	33.369555056153	0.099999298312
36	180409	33.469554353261	0.099999297108
36	180966	33.569566648981	0.10001229572
36	181523	33.669565943128	0.099999294147
36	182080	33.769565235516	0.099999292388
36	182637	33.869564525953	0.099999290437
36	183194	33.969563814243	0.09999928829
36	183759	34.069563100195	0.099999285952
36	184316	34.169562383611	0.099999283416
36	184873	34.269561664297	0.099999280686
36	185430	34.369560942053	0.099999277756
36	185987	34.469560216684	0.099999274631
36	186544	34.569559487992	0.099999271308
36	187101	34.669558755786	0.099999267794
36	187658	34.769558019884	0.099999264098
36	188215	34.869557280118	0.099999260234
36	188772	34.969556536336	0.099999256218
36	189337	35.069555788401	0.099999252065
36	189894	35.169555036198	0.099999247797
36	190451	35.269554279633	0.099999243435
36	191008	35.369566518627	0.100012238994
36	191565	35.469565753116	0.099999234489
36	192122	35.569564983047	0.099999229931
36	192679	35.66956420838	0.099999225333
36	193236	35.76956342908	0.0999992207
36	193793	35.86956264512	0.09999921604
36	194350	35.969561856477	0.099999211357
36	194915	36.069561063137	0.09999920666
36	195472	36.169560265087	0.09999920195
36	196029	36.26955946232	0.099999197233
36	196586	36.369558654831	0.099999192511
