file 1688547 1501600777                                         
version 2
run SinusoidalJammingDetail-358-20170801-17:19:05-41852
attr CACCSpacing 7
attr attackAcc -30
attr attackPos 7
attr attackSpeed 150
attr attackStart 32.5
attr attacker 1
attr beaconInterval 0.1
attr configname SinusoidalJammingDetail
attr controller 1
attr datetime 20170801-17:19:05
attr experiment SinusoidalJammingDetail
attr fakeAcc "(1 == 4)"
attr fakePos "(1 == 2)"
attr fakeSpeed "(1 == 3)"
attr inifile omnetpp_358.ini
attr iterationvars "$leaderSpeed=100, $controller=1, $CACCSpacing=7, $sController=\"CACC\", $attacker=1, $attackStart=32.5, $attackSpeed=150, $attackPos=7, $attackAcc=-30, $0=7, $1=0, $nCars=8, $platoonSize=8, $nLanes=1, $beaconInterval=0.1, $priority=2, $packetSize=200, $ploegH=0.5, $leaderHeadway=1.2, $fakeSpeed=(1 == 3), $fakeAcc=(1 == 4), $fakePos=(1 == 2)"
attr iterationvarsf leaderSpeed=100,controller=1,CACCSpacing=7,sController=CACC,attacker=1,attackStart=32.5,attackSpeed=150,attackPos=7,attackAcc=-30,7,0,nCars=8,platoonSize=8,nLanes=1,beaconInterval=0.1,priority=2,packetSize=200,ploegH=0.5,leaderHeadway=1.2,fakeSpeed=(1_==_3),fakeAcc=(1_==_4),fakePos=(1_==_2)-
attr leaderHeadway 1.2
attr leaderSpeed 100
attr measurement "$leaderSpeed=100, $controller=1, $CACCSpacing=7, $sController=\"CACC\", $attacker=1, $attackStart=32.5, $attackSpeed=150, $attackPos=7, $attackAcc=-30, $0=7, $1=0, $nCars=8, $platoonSize=8, $nLanes=1, $beaconInterval=0.1, $priority=2, $packetSize=200, $ploegH=0.5, $leaderHeadway=1.2, $fakeSpeed=(1 == 3), $fakeAcc=(1 == 4), $fakePos=(1 == 2)"
attr nCars 8
attr nLanes 1
attr network scenario
attr packetSize 200
attr platoonSize 8
attr ploegH 0.5
attr priority 2
attr processid 41852
attr repetition 3
attr replication #3
attr resultdir results
attr runnumber 358
attr sController "\"CACC\""
attr seedset 3
param **.coreDebug false
param **.debug false
param **.headway 0.1s
param **.numberOfCars 8
param **.numberOfCarsPerPlatoon 8
param **.numberOfLanes 1
param **.numericController 1
param **.traffic.nCars 8
param **.traffic.nLanes 1
param **.traffic.platoonInsertDistance 7m
param **.traffic.platoonInsertHeadway 0s
param **.traffic.platoonInsertSpeed 100kmph
param **.traffic.platoonInsertTime "1 s"
param **.traffic.platoonLeaderHeadway 1.2s
param **.traffic.platoonSize 8
param **.traffic.platooningVType "\"vtypeauto\""
param **.traffic_type "\"PlatoonsTrafficManager\""
param *.**.nic.mac1609_4.bitrate 6Mbps
param *.**.nic.mac1609_4.txPower 100mW
param *.**.nic.mac1609_4.useServiceChannel false
param *.**.nic.phy80211p.analogueModels "xmldoc(\"config.xml\")"
param *.**.nic.phy80211p.decider "xmldoc(\"config.xml\")"
param *.**.nic.phy80211p.maxTXPower 100mW
param *.**.nic.phy80211p.sensitivity -94dBm
param *.**.nic.phy80211p.thermalNoise -95dBm
param *.**.nic.phy80211p.usePropagationDelay true
param *.**.nic.phy80211p.useThermalNoise true
param *.annotations.draw false
param *.connectionManager.alpha 2.0
param *.connectionManager.carrierFrequency "5.890e9 Hz"
param *.connectionManager.pMax 100mW
param *.connectionManager.sat -94dBm
param *.connectionManager.sendDirect true
param *.manager.autoShutdown true
param *.manager.commandLine "\"sumo --remote-port $port --seed $seed --configuration-file $configFile\""
param *.manager.configFile "\"./sumocfg/freeway.sumo.cfg\""
param *.manager.host "\"localhost\""
param *.manager.margin 25
param *.manager.moduleDisplayString "\"\""
param *.manager.moduleName "\"node\""
param *.manager.moduleType "\"Car\""
param *.manager.updateInterval 0.01s
param *.node[*].appl.attackStart 32.5s
param *.node[*].appl.attackerType 1
param *.node[*].appl.simulationDuration "60 s"
param *.node[*].appl_type "\"SimplePlatooningApp\""
param *.node[*].helper.nCars 8
param *.node[*].helper.nLanes 1
param *.node[*].helper.platoonSize 8
param *.node[*].helper_type "\"PositionHelper\""
param *.node[*].mobility.x 0
param *.node[*].mobility.y 0
param *.node[*].mobility.z 1.895
param *.node[*].prot.attackStart 32.5s
param *.node[*].prot.attackerType 1
param *.node[*].prot.attackingNode 3
param *.node[*].prot.beaconingInterval 0.1s
param *.node[*].prot.fakeAcc "(1 == 4)"
param *.node[*].prot.fakePos "(1 == 2)"
param *.node[*].prot.fakeSpeed "(1 == 3)"
param *.node[*].prot.maliciousAcc "-30 mpss"
param *.node[*].prot.maliciousSpeed 150kmph
param *.node[*].prot.packetSize 200
param *.node[*].prot.priority 2
param *.node[*].prot.shiftX "7 m"
param *.node[*].prot.useControllerAcceleration true
param *.node[*].protocol_type "\"SimplePlatooningBeaconing\""
param *.node[*].scenario.accHeadway 0.1s
param *.node[*].scenario.caccC1 0.5
param *.node[*].scenario.caccOmegaN "0.2 Hz"
param *.node[*].scenario.caccSpacing 7m
param *.node[*].scenario.caccXi 1
param *.node[*].scenario.controller "\"CACC\""
param *.node[*].scenario.engineTau "0.5 s"
param *.node[*].scenario.leaderHeadway 1.2s
param *.node[*].scenario.leaderOscillationFrequency "0.2 Hz"
param *.node[*].scenario.leaderSpeed 100kmph
param *.node[*].scenario.oscillationAmplitude "10 kmph"
param *.node[*].scenario.ploegH 0.5s
param *.node[*].scenario.ploegKd 0.7
param *.node[*].scenario.ploegKp 0.2
param *.node[*].scenario.startOscillating "5 s"
param *.node[*].scenario.useRealisticEngine false
param *.node[*].scenario_type "\"SinusoidalScenario\""
param *.node[*].unicast.packetLossRate 0
param *.obstacles.debug false
param *.playgroundSizeX 65000m
param *.playgroundSizeY 25000m
param *.playgroundSizeZ 50m
param *.world.use2D false
param *.world.useTorus false

vector 0  scenario.node[0].appl  distance  ETV
vector 1  scenario.node[0].appl  relativeSpeed  ETV
vector 2  scenario.node[0].appl  nodeId  ETV
vector 6  scenario.node[0].appl  acceleration  ETV
vector 7  scenario.node[0].appl  controllerAcceleration  ETV
vector 3  scenario.node[0].appl  speed  ETV
vector 4  scenario.node[0].appl  posx  ETV
vector 5  scenario.node[0].appl  posy  ETV
vector 22  scenario.node[1].appl  distance  ETV
vector 23  scenario.node[1].appl  relativeSpeed  ETV
vector 24  scenario.node[1].appl  nodeId  ETV
vector 28  scenario.node[1].appl  acceleration  ETV
vector 29  scenario.node[1].appl  controllerAcceleration  ETV
vector 25  scenario.node[1].appl  speed  ETV
vector 26  scenario.node[1].appl  posx  ETV
vector 27  scenario.node[1].appl  posy  ETV
vector 44  scenario.node[2].appl  distance  ETV
vector 45  scenario.node[2].appl  relativeSpeed  ETV
vector 46  scenario.node[2].appl  nodeId  ETV
vector 50  scenario.node[2].appl  acceleration  ETV
vector 51  scenario.node[2].appl  controllerAcceleration  ETV
vector 47  scenario.node[2].appl  speed  ETV
vector 48  scenario.node[2].appl  posx  ETV
vector 49  scenario.node[2].appl  posy  ETV
vector 66  scenario.node[3].appl  distance  ETV
vector 67  scenario.node[3].appl  relativeSpeed  ETV
vector 68  scenario.node[3].appl  nodeId  ETV
vector 72  scenario.node[3].appl  acceleration  ETV
vector 73  scenario.node[3].appl  controllerAcceleration  ETV
vector 69  scenario.node[3].appl  speed  ETV
vector 70  scenario.node[3].appl  posx  ETV
vector 71  scenario.node[3].appl  posy  ETV
vector 88  scenario.node[4].appl  distance  ETV
vector 89  scenario.node[4].appl  relativeSpeed  ETV
vector 90  scenario.node[4].appl  nodeId  ETV
vector 94  scenario.node[4].appl  acceleration  ETV
vector 95  scenario.node[4].appl  controllerAcceleration  ETV
vector 91  scenario.node[4].appl  speed  ETV
vector 92  scenario.node[4].appl  posx  ETV
vector 93  scenario.node[4].appl  posy  ETV
vector 110  scenario.node[5].appl  distance  ETV
vector 111  scenario.node[5].appl  relativeSpeed  ETV
vector 112  scenario.node[5].appl  nodeId  ETV
vector 116  scenario.node[5].appl  acceleration  ETV
vector 117  scenario.node[5].appl  controllerAcceleration  ETV
vector 113  scenario.node[5].appl  speed  ETV
vector 114  scenario.node[5].appl  posx  ETV
vector 115  scenario.node[5].appl  posy  ETV
vector 132  scenario.node[6].appl  distance  ETV
vector 133  scenario.node[6].appl  relativeSpeed  ETV
vector 134  scenario.node[6].appl  nodeId  ETV
vector 138  scenario.node[6].appl  acceleration  ETV
vector 139  scenario.node[6].appl  controllerAcceleration  ETV
vector 135  scenario.node[6].appl  speed  ETV
vector 136  scenario.node[6].appl  posx  ETV
vector 137  scenario.node[6].appl  posy  ETV
vector 154  scenario.node[7].appl  distance  ETV
vector 155  scenario.node[7].appl  relativeSpeed  ETV
vector 156  scenario.node[7].appl  nodeId  ETV
vector 160  scenario.node[7].appl  acceleration  ETV
vector 161  scenario.node[7].appl  controllerAcceleration  ETV
vector 157  scenario.node[7].appl  speed  ETV
vector 158  scenario.node[7].appl  posx  ETV
vector 159  scenario.node[7].appl  posy  ETV
vector 35  scenario.node[1].prot  leaderDelay  ETV
vector 33  scenario.node[1].prot  leaderDelayId  ETV
vector 36  scenario.node[1].prot  frontDelay  ETV
vector 34  scenario.node[1].prot  frontDelayId  ETV
vector 57  scenario.node[2].prot  leaderDelay  ETV
vector 55  scenario.node[2].prot  leaderDelayId  ETV
vector 79  scenario.node[3].prot  leaderDelay  ETV
vector 77  scenario.node[3].prot  leaderDelayId  ETV
vector 101  scenario.node[4].prot  leaderDelay  ETV
vector 99  scenario.node[4].prot  leaderDelayId  ETV
vector 123  scenario.node[5].prot  leaderDelay  ETV
vector 121  scenario.node[5].prot  leaderDelayId  ETV
vector 145  scenario.node[6].prot  leaderDelay  ETV
vector 143  scenario.node[6].prot  leaderDelayId  ETV
vector 167  scenario.node[7].prot  leaderDelay  ETV
vector 165  scenario.node[7].prot  leaderDelayId  ETV
vector 168  scenario.node[7].prot  frontDelay  ETV
vector 166  scenario.node[7].prot  frontDelayId  ETV
vector 58  scenario.node[2].prot  frontDelay  ETV
vector 56  scenario.node[2].prot  frontDelayId  ETV
vector 124  scenario.node[5].prot  frontDelay  ETV
vector 122  scenario.node[5].prot  frontDelayId  ETV
vector 80  scenario.node[3].prot  frontDelay  ETV
vector 78  scenario.node[3].prot  frontDelayId  ETV
vector 146  scenario.node[6].prot  frontDelay  ETV
vector 144  scenario.node[6].prot  frontDelayId  ETV
vector 102  scenario.node[4].prot  frontDelay  ETV
vector 100  scenario.node[4].prot  frontDelayId  ETV
vector 8  scenario.node[0].prot  nodeId  ETV
vector 9  scenario.node[0].prot  busyTime  ETV
vector 10  scenario.node[0].prot  collisions  ETV
vector 30  scenario.node[1].prot  nodeId  ETV
vector 31  scenario.node[1].prot  busyTime  ETV
vector 32  scenario.node[1].prot  collisions  ETV
vector 52  scenario.node[2].prot  nodeId  ETV
vector 53  scenario.node[2].prot  busyTime  ETV
vector 54  scenario.node[2].prot  collisions  ETV
vector 74  scenario.node[3].prot  nodeId  ETV
vector 75  scenario.node[3].prot  busyTime  ETV
vector 76  scenario.node[3].prot  collisions  ETV
vector 96  scenario.node[4].prot  nodeId  ETV
vector 97  scenario.node[4].prot  busyTime  ETV
vector 98  scenario.node[4].prot  collisions  ETV
vector 118  scenario.node[5].prot  nodeId  ETV
vector 119  scenario.node[5].prot  busyTime  ETV
vector 120  scenario.node[5].prot  collisions  ETV
vector 140  scenario.node[6].prot  nodeId  ETV
vector 141  scenario.node[6].prot  busyTime  ETV
vector 142  scenario.node[6].prot  collisions  ETV
vector 162  scenario.node[7].prot  nodeId  ETV
vector 163  scenario.node[7].prot  busyTime  ETV
vector 164  scenario.node[7].prot  collisions  ETV
7	11244 13860 232 328174 1.11 59.91 589 -1.5 1.5 -14.445974034379 993.24092368185
6	25104 18594 232 328174 1.11 59.91 589 -1.4722746794938 1.4513434175793 -12.50726914995 675.29835222675
5	43698 12081 232 328174 1.11 59.91 589 36.55 36.55 21527.95 786846.5725
4	55779 17898 232 328174 1.11 59.91 589 119.1237327573 1756.7731982997 553271.41528578 651500102.1397
3	73677 17905 232 328174 1.11 59.91 589 26.487965859734 29.742492528104 16403.83880962 457295.15275867
1	91582 9725 232 328174 1.11 59.91 589 0 0 0 0
0	101307 10314 232 328174 1.11 59.91 589 -1 -1 -589 589
2	111621 9725 232 328174 1.11 59.91 589 0 0 0 0
10	121346 858 5056 328550 2 60 59 0 0 0 0
9	122204 1559 5056 328550 2 60 59 0.022765634224 0.026260455094 1.545256225539 0.040483406928109
8	123763 799 5056 328550 2 60 59 0 0 0 0
29	124562 19484 233 328175 1.11 59.91 589 -1.5233934266307 1.5241492081013 -0.3176385532334 515.88293265488
28	144046 19501 233 328175 1.11 59.91 589 -1.4872877099247 1.4632119897342 -0.42257784825956 351.42342079503
27	163547 12670 233 328175 1.11 59.91 589 36.55 36.55 21527.95 786846.5725
26	176217 18497 233 328175 1.11 59.91 589 108.12373275757 1735.8600652437 545354.34107263 635032647.60901
25	194714 18488 233 328175 1.11 59.91 589 26.480495436544 29.7479049181 16305.126187738 451693.80672948
23	213202 19701 233 328175 1.11 59.91 589 -1.2679196180427 2.1732908291205 98.837694573381 294.96684481523
22	232903 18504 233 328175 1.11 59.91 589 4.8020561676103 17.509007516663 5559.0999607177 60792.048099061
24	251407 10314 233 328175 1.11 59.91 589 1 1 589 589
36	261721 23667 836 328222 1.269557990684 59.969559662302 588 0.099998943043 0.100012510019 58.80000062561 5.8800001316914
35	285388 23667 836 328222 1.269557990684 59.969559662302 588 0.099998943043 0.100012510019 58.80000062561 5.8800001316914
34	309055 16101 836 328222 1.269557990684 59.969559662302 588 1 1 588 588
33	325156 16101 836 328222 1.269557990684 59.969559662302 588 1 1 588 588
32	341257 858 5057 328551 2 60 59 0 0 0 0
31	342115 1613 5057 328551 2 60 59 0.022765670916 0.026260455419 1.545256294974 0.040483410317998
30	343728 858 5057 328551 2 60 59 1 1 59 59
51	344586 19422 234 328176 1.11 59.91 589 -1.5293286672973 1.5293868179431 -1.4118855903999 520.18799238435
50	364008 19455 234 328176 1.11 59.91 589 -1.4784118257388 1.4535038978803 -1.5440974510199 350.80815510308
49	383463 12670 234 328176 1.11 59.91 589 36.55 36.55 21527.95 786846.5725
48	396133 18491 234 328176 1.11 59.91 589 97.123732757568 1717.4425426461 537829.59911574 619981268.36681
47	414624 18488 234 328176 1.11 59.91 589 26.432611025735 29.741727178259 16230.911658668 447675.11164721
45	433112 19961 234 328176 1.11 59.91 589 -0.011889528376166 0.47855234583372 74.218754848203 26.33400254436
44	453073 18487 234 328176 1.11 59.91 589 6.9825738791728 14.415275418789 5167.2576663044 49374.419946981
46	471560 10314 234 328176 1.11 59.91 589 2 2 1178 2356
58	481874 23673 1046 328426 1.29918946768 59.999191407076 588 0.099998943214 0.100012521398 58.800000893388 5.8800001852502
57	505547 23680 842 328228 1.269558027376 59.969559723755 588 0.099998943077 0.100012510054 58.800000650371 5.8800001366436
56	529227 16107 1046 328426 1.29918946768 59.999191407076 588 2 2 1176 2352
55	545334 16103 842 328228 1.269558027376 59.969559723755 588 2 2 1176 2352
54	561437 858 5058 328552 2 60 59 0 0 0 0
53	562295 1621 5058 328552 2 60 59 0.022765707608 0.026260455476 1.545256356438 0.040483413289171
52	563916 858 5058 328552 2 60 59 2 2 118 236
73	564774 19385 235 328177 1.11 59.91 589 -1.488880764104 1.4893729257437 -2.7997322190439 487.99929845899
72	584159 19439 235 328177 1.11 59.91 589 -1.4638941575949 1.4373649675321 -2.9963434209108 345.81742656692
71	603598 12670 235 328177 1.11 59.91 589 36.55 36.55 21527.95 786846.5725
70	616268 18502 235 328177 1.11 59.91 589 86.123736572266 1699.4618048285 530468.81617288 605587910.60902
69	634770 18489 235 328177 1.11 59.91 589 26.088094777881 29.728229000103 16161.053327741 443926.78073915
67	653259 19729 235 328177 1.11 59.91 589 -0.037725596403721 0.42858165510724 69.873771901557 22.640240477709
66	672988 18493 235 328177 1.11 59.91 589 6.9599642521908 13.977823976605 5003.3857762411 45670.072334432
68	691481 10314 235 328177 1.11 59.91 589 3 3 1767 5301
80	701795 23716 1180 328569 1.30021065114 60.000212703578 588 0.099998943275 0.100012525559 58.80000100643 5.8800002078602
79	725511 23696 848 328234 1.269558064068 59.969559783756 588 0.099998943091 0.100012510107 58.80000067368 5.8800001413054
78	749207 16118 1180 328569 1.30021065114 60.000212703578 588 3 3 1764 5292
77	765325 16110 848 328234 1.269558064068 59.969559783756 588 3 3 1764 5292
76	781435 858 5059 328553 2 60 59 0 0 0 0
75	782293 1618 5059 328553 2 60 59 0.022764670916 0.026260455365 1.545255296422 0.04048336486367
74	783911 858 5059 328553 2 60 59 3 3 177 531
95	784769 19377 236 328178 1.11 59.91 589 -1.4835633692151 1.4833693264006 -4.541117219419 480.66284748493
94	804146 19416 236 328178 1.11 59.91 589 -1.4536758792328 1.4275434721128 -4.8165620678709 342.17501040634
93	823562 12670 236 328178 1.11 59.91 589 36.55 36.55 21527.95 786846.5725
92	836232 18501 236 328178 1.11 59.91 589 75.123736572266 1682.0202547922 523256.19476607 591802604.80105
91	854733 18483 236 328178 1.11 59.91 589 25.811317175429 29.714956113919 16096.574007941 440498.04395041
89	873216 19958 236 328178 1.11 59.91 589 -0.01216429748942 0.37345325754083 64.509283234378 19.180263212883
88	893174 18471 236 328178 1.11 59.91 589 6.9850564871532 13.437897181338 4855.3318204134 42425.184539805
90	911645 10314 236 328178 1.11 59.91 589 4 4 2356 9424
102	921959 24299 1312 328701 1.3060288346 60.006056990684 588 0.099907952411 0.10010317614 58.799962110076 5.879993563503
101	946258 24257 854 328240 1.26955810076 59.969559841965 588 0.099998943099 0.100012510175 58.800000695197 5.8800001456088
100	970515 16700 1312 328701 1.3060288346 60.006056990684 588 4 4 2352 9408
99	987215 16090 854 328240 1.26955810076 59.969559841965 588 4 4 2352 9408
98	1003305 858 5060 328554 2 60 59 0 0 0 0
97	1004163 1614 5060 328554 2 60 59 0.022765634224 0.026260455333 1.545256238195 0.040483407592788
96	1005777 858 5060 328554 2 60 59 4 4 236 944
117	1006635 19961 237 328179 1.11 59.91 589 -1.501480106971 1.5049213372206 -6.7158141977061 501.12026085683
116	1026596 20005 237 328179 1.11 59.91 589 -1.4472993271333 1.4222212029342 -6.9747607995573 340.03664894373
115	1046601 13259 237 328179 1.11 59.91 589 36.55 36.55 21527.95 786846.5725
114	1059860 19076 237 328179 1.11 59.91 589 64.123736572266 1665.1883033427 516174.49885987 578570743.41373
113	1078936 19059 237 328179 1.11 59.91 589 25.589695833455 29.70551134947 16038.178878188 437419.00953151
111	1097995 20377 237 328179 1.11 59.91 589 -0.017702963905226 0.33721814810503 58.443295373345 16.22826679772
110	1118372 19057 237 328179 1.11 59.91 589 6.9951983485793 12.827623516939 4724.5280036062 39661.52982738
112	1137429 10903 237 328179 1.11 59.91 589 5 5 2945 14725
124	1148332 24291 1112 328492 1.299602577756 59.999591581522 588 0.099998943242 0.100012489723 58.800000957758 5.8800001981157
123	1172623 24308 860 328246 1.269558137452 59.969559898147 588 0.099998943104 0.100012510253 58.800000714687 5.8800001495068
122	1196931 16705 1112 328492 1.299602577756 59.999591581522 588 5 5 2940 14700
121	1213636 16704 860 328246 1.269558137452 59.969559898147 588 5 5 2940 14700
120	1230340 917 5061 328555 2 60 59 0 0 0 0
119	1231257 1672 5061 328555 2 60 59 0.022764597532 0.026260455343 1.545255181992 0.040483359367639
118	1232929 917 5061 328555 2 60 59 5 5 295 1475
139	1233846 19947 238 328180 1.11 59.91 589 -1.4833385394099 1.4846827031051 -8.9380947654875 485.66212061889
138	1253793 20005 238 328180 1.11 59.91 589 -1.4512379848 1.4281947173163 -9.3865945289316 345.03820923128
137	1273798 13259 238 328180 1.11 59.91 589 36.55 36.55 21527.95 786846.5725
136	1287057 19085 238 328180 1.11 59.91 589 53.123734664917 1649.026317243 509204.7300956 565833375.86872
135	1306142 19086 238 328180 1.11 59.91 589 25.41391604144 29.71147880333 15986.47445847 434717.85642192
133	1325228 20345 238 328180 1.11 59.91 589 -0.042125315987541 0.30662100344711 51.774167326641 13.39817186826
132	1345573 19091 238 328180 1.11 59.91 589 6.9651252840471 12.157147659055 4612.7346758764 37373.436530966
134	1364664 10903 238 328180 1.11 59.91 589 6 6 3534 21204
146	1375567 24298 1249 328638 1.305615761216 60.005604871991 588 0.099998943295 0.100012484965 58.799988064767 5.8799976193746
145	1399865 24284 866 328252 1.269558174144 59.969559952098 588 0.099998943112 0.100012510341 58.800000731946 5.8800001529586
144	1424149 16712 1249 328638 1.305615761216 60.005604871991 588 6 6 3528 21168
143	1440861 16693 866 328252 1.269558174144 59.969559952098 588 6 6 3528 21168
142	1457554 917 5062 328556 2 60 59 0 0 0 0
141	1458471 1673 5062 328556 2 60 59 0.02276556084 0.026260455408 1.545256128017 0.040483402319865
140	1460144 917 5062 328556 2 60 59 6 6 354 2124
161	1461061 19954 239 328181 1.11 59.91 589 -1.5021746558785 1.5049027538664 -11.642611923617 506.37055570789
160	1481015 20034 239 328181 1.11 59.91 589 -1.4497273648825 1.4256030074939 -11.95046236924 343.64936161906
159	1501049 13259 239 328181 1.11 59.91 589 36.55 36.55 21527.95 786846.5725
158	1514308 19101 239 328181 1.11 59.91 589 42.123735618591 1633.5067358523 502335.33774992 553548712.98399
157	1533409 19085 239 328181 1.11 59.91 589 25.263394952846 29.708149830756 15941.188892806 432367.85677938
155	1552494 20640 239 328181 1.11 59.91 589 -0.0042089997737058 0.28727922128087 45.37943160895 10.900868130424
154	1573134 19081 239 328181 1.11 59.91 589 6.9903281599126 11.51444759198 4512.4866343616 35445.840202793
156	1592215 10903 239 328181 1.11 59.91 589 7 7 4123 28861
168	1603118 24275 980 328360 1.29210728422 59.992109107563 588 0.099998943111 0.100012529473 58.800000777335 5.8800001620439
167	1627393 24263 872 328258 1.269558210836 59.969560003908 588 0.099998943111 0.10001251043 58.800000747064 5.8800001559822
166	1651656 16687 980 328360 1.29210728422 59.992109107563 588 7 7 4116 28812
165	1668343 16691 872 328258 1.269558210836 59.969560003908 588 7 7 4116 28812
164	1685034 917 5063 328557 2 60 59 0 0 0 0
163	1685951 1679 5063 328557 2 60 59 0.022765524148 0.026260455368 1.545256076181 0.040483399854182
162	1687630 917 5063 328557 2 60 59 7 7 413 2891
