version 2
run SinusoidalJammingDetail-530-20170802-14:19:25-42686
attr CACCSpacing 20
attr attackAcc -30
attr attackPos 7
attr attackSpeed 150
attr attackStart 32
attr attacker 1
attr beaconInterval 0.1
attr configname SinusoidalJammingDetail
attr controller 1
attr datetime 20170802-14:19:25
attr experiment SinusoidalJammingDetail
attr fakeAcc "(1 == 4)"
attr fakePos "(1 == 2)"
attr fakeSpeed "(1 == 3)"
attr inifile omnetpp_530.ini
attr iterationvars "$leaderSpeed=100, $controller=1, $CACCSpacing=20, $sController=\"CACC\", $attacker=1, $attackStart=32, $attackSpeed=150, $attackPos=7, $attackAcc=-30, $0=20, $1=0, $nCars=8, $platoonSize=8, $nLanes=1, $beaconInterval=0.1, $priority=2, $packetSize=200, $ploegH=0.5, $leaderHeadway=1.2, $fakeSpeed=(1 == 3), $fakeAcc=(1 == 4), $fakePos=(1 == 2)"
attr iterationvarsf leaderSpeed=100,controller=1,CACCSpacing=20,sController=CACC,attacker=1,attackStart=32,attackSpeed=150,attackPos=7,attackAcc=-30,20,0,nCars=8,platoonSize=8,nLanes=1,beaconInterval=0.1,priority=2,packetSize=200,ploegH=0.5,leaderHeadway=1.2,fakeSpeed=(1_==_3),fakeAcc=(1_==_4),fakePos=(1_==_2)-
attr leaderHeadway 1.2
attr leaderSpeed 100
attr measurement "$leaderSpeed=100, $controller=1, $CACCSpacing=20, $sController=\"CACC\", $attacker=1, $attackStart=32, $attackSpeed=150, $attackPos=7, $attackAcc=-30, $0=20, $1=0, $nCars=8, $platoonSize=8, $nLanes=1, $beaconInterval=0.1, $priority=2, $packetSize=200, $ploegH=0.5, $leaderHeadway=1.2, $fakeSpeed=(1 == 3), $fakeAcc=(1 == 4), $fakePos=(1 == 2)"
attr nCars 8
attr nLanes 1
attr network scenario
attr packetSize 200
attr platoonSize 8
attr ploegH 0.5
attr priority 2
attr processid 42686
attr repetition 0
attr replication #0
attr resultdir results
attr runnumber 530
attr sController "\"CACC\""
attr seedset 0
param **.coreDebug false
param **.debug false
param **.headway 0.1s
param **.numberOfCars 8
param **.numberOfCarsPerPlatoon 8
param **.numberOfLanes 1
param **.numericController 1
param **.traffic.nCars 8
param **.traffic.nLanes 1
param **.traffic.platoonInsertDistance 20m
param **.traffic.platoonInsertHeadway 0s
param **.traffic.platoonInsertSpeed 100kmph
param **.traffic.platoonInsertTime "1 s"
param **.traffic.platoonLeaderHeadway 1.2s
param **.traffic.platoonSize 8
param **.traffic.platooningVType "\"vtypeauto\""
param **.traffic_type "\"PlatoonsTrafficManager\""
param *.**.nic.mac1609_4.bitrate 6Mbps
param *.**.nic.mac1609_4.txPower 100mW
param *.**.nic.mac1609_4.useServiceChannel false
param *.**.nic.phy80211p.analogueModels "xmldoc(\"config.xml\")"
param *.**.nic.phy80211p.decider "xmldoc(\"config.xml\")"
param *.**.nic.phy80211p.maxTXPower 100mW
param *.**.nic.phy80211p.sensitivity -94dBm
param *.**.nic.phy80211p.thermalNoise -95dBm
param *.**.nic.phy80211p.usePropagationDelay true
param *.**.nic.phy80211p.useThermalNoise true
param *.annotations.draw false
param *.connectionManager.alpha 2.0
param *.connectionManager.carrierFrequency "5.890e9 Hz"
param *.connectionManager.pMax 100mW
param *.connectionManager.sat -94dBm
param *.connectionManager.sendDirect true
param *.manager.autoShutdown true
param *.manager.commandLine "\"sumo --remote-port $port --seed $seed --configuration-file $configFile\""
param *.manager.configFile "\"./sumocfg/freeway.sumo.cfg\""
param *.manager.host "\"localhost\""
param *.manager.margin 25
param *.manager.moduleDisplayString "\"\""
param *.manager.moduleName "\"node\""
param *.manager.moduleType "\"Car\""
param *.manager.updateInterval 0.01s
param *.node[*].appl.attackStart 32s
param *.node[*].appl.attackerType 1
param *.node[*].appl.simulationDuration "60 s"
param *.node[*].appl_type "\"SimplePlatooningApp\""
param *.node[*].helper.nCars 8
param *.node[*].helper.nLanes 1
param *.node[*].helper.platoonSize 8
param *.node[*].helper_type "\"PositionHelper\""
param *.node[*].mobility.x 0
param *.node[*].mobility.y 0
param *.node[*].mobility.z 1.895
param *.node[*].prot.attackStart 32s
param *.node[*].prot.attackerType 1
param *.node[*].prot.attackingNode 3
param *.node[*].prot.beaconingInterval 0.1s
param *.node[*].prot.fakeAcc "(1 == 4)"
param *.node[*].prot.fakePos "(1 == 2)"
param *.node[*].prot.fakeSpeed "(1 == 3)"
param *.node[*].prot.maliciousAcc "-30 mpss"
param *.node[*].prot.maliciousSpeed 150kmph
param *.node[*].prot.packetSize 200
param *.node[*].prot.priority 2
param *.node[*].prot.shiftX "7 m"
param *.node[*].prot.useControllerAcceleration true
param *.node[*].protocol_type "\"SimplePlatooningBeaconing\""
param *.node[*].scenario.accHeadway 0.1s
param *.node[*].scenario.caccC1 0.5
param *.node[*].scenario.caccOmegaN "0.2 Hz"
param *.node[*].scenario.caccSpacing 20m
param *.node[*].scenario.caccXi 1
param *.node[*].scenario.controller "\"CACC\""
param *.node[*].scenario.engineTau "0.5 s"
param *.node[*].scenario.leaderHeadway 1.2s
param *.node[*].scenario.leaderOscillationFrequency "0.2 Hz"
param *.node[*].scenario.leaderSpeed 100kmph
param *.node[*].scenario.oscillationAmplitude "10 kmph"
param *.node[*].scenario.ploegH 0.5s
param *.node[*].scenario.ploegKd 0.7
param *.node[*].scenario.ploegKp 0.2
param *.node[*].scenario.startOscillating "5 s"
param *.node[*].scenario.useRealisticEngine false
param *.node[*].scenario_type "\"SinusoidalScenario\""
param *.node[*].unicast.packetLossRate 0
param *.obstacles.debug false
param *.playgroundSizeX 65000m
param *.playgroundSizeY 25000m
param *.playgroundSizeZ 50m
param *.world.use2D false
param *.world.useTorus false

vector 0  scenario.node[0].appl  distance  ETV
vector 1  scenario.node[0].appl  relativeSpeed  ETV
vector 2  scenario.node[0].appl  nodeId  ETV
vector 6  scenario.node[0].appl  acceleration  ETV
vector 7  scenario.node[0].appl  controllerAcceleration  ETV
vector 3  scenario.node[0].appl  speed  ETV
vector 4  scenario.node[0].appl  posx  ETV
vector 5  scenario.node[0].appl  posy  ETV
vector 22  scenario.node[1].appl  distance  ETV
vector 23  scenario.node[1].appl  relativeSpeed  ETV
vector 24  scenario.node[1].appl  nodeId  ETV
vector 28  scenario.node[1].appl  acceleration  ETV
vector 29  scenario.node[1].appl  controllerAcceleration  ETV
vector 25  scenario.node[1].appl  speed  ETV
vector 26  scenario.node[1].appl  posx  ETV
vector 27  scenario.node[1].appl  posy  ETV
vector 44  scenario.node[2].appl  distance  ETV
vector 45  scenario.node[2].appl  relativeSpeed  ETV
vector 46  scenario.node[2].appl  nodeId  ETV
vector 50  scenario.node[2].appl  acceleration  ETV
vector 51  scenario.node[2].appl  controllerAcceleration  ETV
vector 47  scenario.node[2].appl  speed  ETV
vector 48  scenario.node[2].appl  posx  ETV
vector 49  scenario.node[2].appl  posy  ETV
vector 66  scenario.node[3].appl  distance  ETV
vector 67  scenario.node[3].appl  relativeSpeed  ETV
vector 68  scenario.node[3].appl  nodeId  ETV
vector 72  scenario.node[3].appl  acceleration  ETV
vector 73  scenario.node[3].appl  controllerAcceleration  ETV
vector 69  scenario.node[3].appl  speed  ETV
vector 70  scenario.node[3].appl  posx  ETV
vector 71  scenario.node[3].appl  posy  ETV
vector 88  scenario.node[4].appl  distance  ETV
vector 89  scenario.node[4].appl  relativeSpeed  ETV
vector 90  scenario.node[4].appl  nodeId  ETV
vector 94  scenario.node[4].appl  acceleration  ETV
vector 95  scenario.node[4].appl  controllerAcceleration  ETV
vector 91  scenario.node[4].appl  speed  ETV
vector 92  scenario.node[4].appl  posx  ETV
vector 93  scenario.node[4].appl  posy  ETV
vector 110  scenario.node[5].appl  distance  ETV
vector 111  scenario.node[5].appl  relativeSpeed  ETV
vector 112  scenario.node[5].appl  nodeId  ETV
vector 116  scenario.node[5].appl  acceleration  ETV
vector 117  scenario.node[5].appl  controllerAcceleration  ETV
vector 113  scenario.node[5].appl  speed  ETV
vector 114  scenario.node[5].appl  posx  ETV
vector 115  scenario.node[5].appl  posy  ETV
vector 132  scenario.node[6].appl  distance  ETV
vector 133  scenario.node[6].appl  relativeSpeed  ETV
vector 134  scenario.node[6].appl  nodeId  ETV
vector 138  scenario.node[6].appl  acceleration  ETV
vector 139  scenario.node[6].appl  controllerAcceleration  ETV
vector 135  scenario.node[6].appl  speed  ETV
vector 136  scenario.node[6].appl  posx  ETV
vector 137  scenario.node[6].appl  posy  ETV
vector 154  scenario.node[7].appl  distance  ETV
vector 155  scenario.node[7].appl  relativeSpeed  ETV
vector 156  scenario.node[7].appl  nodeId  ETV
vector 160  scenario.node[7].appl  acceleration  ETV
vector 161  scenario.node[7].appl  controllerAcceleration  ETV
vector 157  scenario.node[7].appl  speed  ETV
vector 158  scenario.node[7].appl  posx  ETV
vector 159  scenario.node[7].appl  posy  ETV
vector 80  scenario.node[3].prot  frontDelay  ETV
vector 78  scenario.node[3].prot  frontDelayId  ETV
vector 58  scenario.node[2].prot  frontDelay  ETV
vector 56  scenario.node[2].prot  frontDelayId  ETV
vector 168  scenario.node[7].prot  frontDelay  ETV
vector 166  scenario.node[7].prot  frontDelayId  ETV
vector 35  scenario.node[1].prot  leaderDelay  ETV
vector 33  scenario.node[1].prot  leaderDelayId  ETV
vector 36  scenario.node[1].prot  frontDelay  ETV
vector 34  scenario.node[1].prot  frontDelayId  ETV
vector 57  scenario.node[2].prot  leaderDelay  ETV
vector 55  scenario.node[2].prot  leaderDelayId  ETV
vector 79  scenario.node[3].prot  leaderDelay  ETV
vector 77  scenario.node[3].prot  leaderDelayId  ETV
vector 101  scenario.node[4].prot  leaderDelay  ETV
vector 99  scenario.node[4].prot  leaderDelayId  ETV
vector 123  scenario.node[5].prot  leaderDelay  ETV
vector 121  scenario.node[5].prot  leaderDelayId  ETV
vector 145  scenario.node[6].prot  leaderDelay  ETV
vector 143  scenario.node[6].prot  leaderDelayId  ETV
vector 167  scenario.node[7].prot  leaderDelay  ETV
vector 165  scenario.node[7].prot  leaderDelayId  ETV
vector 124  scenario.node[5].prot  frontDelay  ETV
vector 122  scenario.node[5].prot  frontDelayId  ETV
vector 102  scenario.node[4].prot  frontDelay  ETV
vector 100  scenario.node[4].prot  frontDelayId  ETV
vector 146  scenario.node[6].prot  frontDelay  ETV
vector 144  scenario.node[6].prot  frontDelayId  ETV
vector 8  scenario.node[0].prot  nodeId  ETV
vector 9  scenario.node[0].prot  busyTime  ETV
vector 10  scenario.node[0].prot  collisions  ETV
vector 30  scenario.node[1].prot  nodeId  ETV
vector 31  scenario.node[1].prot  busyTime  ETV
vector 32  scenario.node[1].prot  collisions  ETV
vector 52  scenario.node[2].prot  nodeId  ETV
vector 53  scenario.node[2].prot  busyTime  ETV
vector 54  scenario.node[2].prot  collisions  ETV
vector 74  scenario.node[3].prot  nodeId  ETV
vector 75  scenario.node[3].prot  busyTime  ETV
vector 76  scenario.node[3].prot  collisions  ETV
vector 96  scenario.node[4].prot  nodeId  ETV
vector 97  scenario.node[4].prot  busyTime  ETV
vector 98  scenario.node[4].prot  collisions  ETV
vector 118  scenario.node[5].prot  nodeId  ETV
vector 119  scenario.node[5].prot  busyTime  ETV
vector 120  scenario.node[5].prot  collisions  ETV
vector 140  scenario.node[6].prot  nodeId  ETV
vector 141  scenario.node[6].prot  busyTime  ETV
vector 142  scenario.node[6].prot  collisions  ETV
vector 162  scenario.node[7].prot  nodeId  ETV
vector 163  scenario.node[7].prot  busyTime  ETV
vector 164  scenario.node[7].prot  collisions  ETV
7	232	1.11	-8.430731206488e-07
7	788	1.21	-8.247038785214e-07
7	1344	1.31	-7.948429328053e-07
7	1900	1.41	-7.5609037608615e-07
7	2456	1.51	-7.1073863239235e-07
7	3012	1.61	-6.6078666094427e-07
7	3568	1.71	-6.079568990458e-07
7	4124	1.81	-5.5371389606762e-07
7	4680	1.91	-4.9928438983216e-07
7	5244	2.01	-4.4567811841034e-07
7	5800	2.11	-3.9370868165634e-07
7	6356	2.21	-3.4401411852514e-07
7	6912	2.31	-2.9707706872273e-07
7	7468	2.41	-2.5324398578164e-07
7	8024	2.51	-2.1274344064182e-07
7	8580	2.61	-1.7570315336002e-07
7	9136	2.71	-1.4216582755466e-07
7	9692	2.81	-1.1210364547765e-07
7	10248	2.91	-8.5431519636359e-08
7	10812	3.01	-6.2018816748832e-08
7	11368	3.11	-4.1699859565369e-08
7	11924	3.21	-2.4283316690799e-08
7	12480	3.31	-9.5601571103998e-09
7	13036	3.41	2.6894362292751e-09
7	13592	3.51	1.2690140493987e-08
7	14148	3.61	2.0666576006079e-08
7	14704	3.71	2.6839355626862e-08
7	15260	3.81	3.1421798496467e-08
7	15816	3.91	3.4617407607129e-08
7	16380	4.01	3.6617997523081e-08
7	16936	4.11	3.7602347902066e-08
7	17492	4.21	3.7735404134764e-08
7	18048	4.31	3.7167730226884e-08
7	18604	4.41	3.6035434192172e-08
7	19160	4.51	3.446024621212e-08
7	19716	4.61	3.2549973383311e-08
7	20272	4.71	3.0399071704323e-08
7	20828	4.81	2.8089345960325e-08
7	21384	4.91	2.5690727767369e-08
7	21949	5.01	2.326218861981e-08
7	22506	5.11	0.34814789186464
7	23063	5.21	0.68726937161622
7	23620	5.31	1.0064706311115
7	24177	5.41	1.2963311698934
7	24734	5.51	1.5
7	25291	5.61	1.5
7	25848	5.71	1.5
7	26405	5.81	1.5
7	26962	5.91	1.5
7	27527	6.01	1.5
7	28084	6.11	1.5
7	28641	6.21	1.5
7	29198	6.31	1.5
7	29755	6.41	1.5
7	30312	6.51	1.4919234148491
7	30869	6.61	1.226499329248
7	31426	6.71	0.92305384082895
7	31983	6.81	0.58908102066068
7	32540	6.91	0.2323562172788
7	33105	7.01	-0.13919559696193
7	33662	7.11	-0.51762846464532
7	34219	7.21	-0.89509993840359
7	34776	7.31	-1.2639902875456
7	35333	7.41	-1.5
7	35890	7.51	-1.5
7	36447	7.61	-1.5
7	37004	7.71	-1.5
7	37561	7.81	-1.5
7	38118	7.91	-1.5
7	38683	8.01	-1.5
7	39240	8.11	-1.5
7	39797	8.21	-1.5
7	40354	8.31	-1.5
7	40911	8.41	-1.5
7	41468	8.51	-1.5
7	42025	8.61	-1.5
7	42582	8.71	-1.5
7	43139	8.81	-1.5
7	43696	8.91	-1.5
7	44261	9.01	-1.5
7	44818	9.11	-1.5
7	45375	9.21	-1.5
7	45932	9.31	-1.5
7	46489	9.41	-1.5
7	47046	9.51	-1.1784535904302
7	47603	9.61	-0.73985166419522
7	48160	9.71	-0.29046662059022
7	48717	9.81	0.15868205669937
7	49274	9.91	0.59737147691163
7	49839	10.01	1.0162504341895
7	50396	10.11	1.4069035498921
7	50953	10.21	1.5
7	51510	10.31	1.5
7	52067	10.41	1.5
7	52624	10.51	1.5
7	53181	10.61	1.5
7	53738	10.71	1.5
7	54295	10.81	1.5
7	54852	10.91	1.5
7	55417	11.01	1.5
7	55974	11.11	1.5
7	56531	11.21	1.5
7	57088	11.31	1.5
7	57645	11.41	1.5
7	58202	11.51	1.5
7	58759	11.61	1.5
7	59316	11.71	1.5
7	59873	11.81	1.5
7	60430	11.91	1.142056952341
7	60995	12.01	0.73271074174567
7	61552	12.11	0.30763491703603
7	62109	12.21	-0.1229018340005
7	62666	12.31	-0.54917422864573
7	63223	12.41	-0.96209331715876
7	63780	12.51	-1.353290027524
7	64337	12.61	-1.5
7	64894	12.71	-1.5
7	65451	12.81	-1.5
7	66008	12.91	-1.5
7	66573	13.01	-1.5
7	67130	13.11	-1.5
7	67687	13.21	-1.5
7	68244	13.31	-1.5
7	68801	13.41	-1.5
7	69358	13.51	-1.5
7	69915	13.61	-1.5
7	70472	13.71	-1.5
7	71029	13.81	-1.5
7	71586	13.91	-1.5
7	72151	14.01	-1.5
7	72708	14.11	-1.5
7	73265	14.21	-1.5
7	73822	14.31	-1.5
7	74379	14.41	-1.3008305793136
7	74936	14.51	-0.8883573602082
7	75493	14.61	-0.45792464374534
7	76050	14.71	-0.020297800477731
7	76607	14.81	0.41435934757689
7	77164	14.91	0.83657487484984
7	77729	15.01	1.2376491838973
7	78286	15.11	1.5
7	78843	15.21	1.5
7	79400	15.31	1.5
7	79957	15.41	1.5
7	80514	15.51	1.5
7	81071	15.61	1.5
7	81628	15.71	1.5
7	82185	15.81	1.5
7	82742	15.91	1.5
7	83307	16.01	1.5
7	83864	16.11	1.5
7	84421	16.21	1.5
7	84978	16.31	1.5
7	85535	16.41	1.5
7	86092	16.51	1.5
7	86649	16.61	1.5
7	87206	16.71	1.5
7	87763	16.81	1.5
7	88320	16.91	1.2451238477401
7	88885	17.01	0.83347870135556
7	89442	17.11	0.40470958877082
7	89999	17.21	-0.03059806221717
7	90556	17.31	-0.46243980386486
7	91113	17.41	-0.8814833530446
7	91670	17.51	-1.2791500631707
7	92227	17.61	-1.5
7	92784	17.71	-1.5
7	93341	17.81	-1.5
7	93898	17.91	-1.5
7	94463	18.01	-1.5
7	95020	18.11	-1.5
7	95577	18.21	-1.5
7	96134	18.31	-1.5
7	96691	18.41	-1.5
7	97248	18.51	-1.5
7	97805	18.61	-1.5
7	98362	18.71	-1.5
7	98919	18.81	-1.5
7	99476	18.91	-1.5
7	100041	19.01	-1.5
7	100598	19.11	-1.5
7	101155	19.21	-1.5
7	101712	19.31	-1.5
7	102269	19.41	-1.2657245815118
7	102826	19.51	-0.85377693481412
7	103383	19.61	-0.42439560037995
7	103940	19.71	0.011767371269134
7	104497	19.81	0.44464851836491
7	105054	19.91	0.86486384400621
7	105619	20.01	1.2637899041136
7	106176	20.11	1.5
7	106733	20.21	1.5
7	107290	20.31	1.5
7	107847	20.41	1.5
7	108404	20.51	1.5
7	108961	20.61	1.5
7	109518	20.71	1.5
7	110075	20.81	1.5
7	110632	20.91	1.5
7	111197	21.01	1.5
7	111754	21.11	1.5
7	112311	21.21	1.5
7	112868	21.31	1.5
7	113425	21.41	1.5
7	113982	21.51	1.5
7	114539	21.61	1.5
7	115096	21.71	1.5
7	115653	21.81	1.5
7	116210	21.91	1.258091551777
7	116775	22.01	0.8462549163489
7	117332	22.11	0.41709956367568
7	117889	22.21	-0.018747163542116
7	118446	22.31	-0.45124369149361
7	119003	22.41	-0.87102520538537
7	119560	22.51	-1.2694848794591
7	120117	22.61	-1.5
7	120674	22.71	-1.5
7	121231	22.81	-1.5
7	121788	22.91	-1.5
7	122353	23.01	-1.5
7	122910	23.11	-1.5
7	123467	23.21	-1.5
7	124024	23.31	-1.5
7	124581	23.41	-1.5
7	125138	23.51	-1.5
7	125695	23.61	-1.5
7	126252	23.71	-1.5
7	126809	23.81	-1.5
7	127366	23.91	-1.5
7	127931	24.01	-1.5
7	128488	24.11	-1.5
7	129045	24.21	-1.5
7	129602	24.31	-1.5
7	130159	24.41	-1.2609239651112
7	130716	24.51	-0.8490461568448
7	131273	24.61	-0.41980696481052
7	131830	24.71	0.016157099446737
7	132387	24.81	0.44879633966076
7	132944	24.91	0.86873882266934
7	133509	25.01	1.26737155572
7	134066	25.11	1.5
7	134623	25.21	1.5
7	135180	25.31	1.5
7	135737	25.41	1.5
7	136294	25.51	1.5
7	136851	25.61	1.5
7	137408	25.71	1.5
7	137965	25.81	1.5
7	138522	25.91	1.5
7	139087	26.01	1.5
7	139644	26.11	1.5
7	140201	26.21	1.5
7	140758	26.31	1.5
7	141315	26.41	1.5
7	141872	26.51	1.5
7	142429	26.61	1.5
7	142986	26.71	1.5
7	143543	26.81	1.5
7	144100	26.91	1.2598728518634
7	144665	27.01	0.84801032251441
7	145222	27.11	0.41880224309152
7	145779	27.21	-0.017118277441824
7	146336	27.31	-0.44970455708397
7	146893	27.41	-0.86958730431876
7	147450	27.51	-1.2681558149826
7	148007	27.61	-1.5
7	148564	27.71	-1.5
7	149121	27.81	-1.5
7	149678	27.91	-1.5
7	150243	28.01	-1.5
7	150800	28.11	-1.5
7	151357	28.21	-1.5
7	151914	28.31	-1.5
7	152471	28.41	-1.5
7	153028	28.51	-1.5
7	153585	28.61	-1.5
7	154142	28.71	-1.5
7	154699	28.81	-1.5
7	155256	28.91	-1.5
7	155821	29.01	-1.5
7	156378	29.11	-1.5
7	156935	29.21	-1.5
7	157492	29.31	-1.5
7	158049	29.41	-1.2602629232513
7	158606	29.51	-0.84839472385599
7	159163	29.61	-0.41917509845245
7	159720	29.71	0.016761581287305
7	160277	29.81	0.44936751475852
7	160834	29.91	0.86927243012183
7	161399	30.01	1.267864773911
7	161956	30.11	1.5
7	162513	30.21	1.5
7	163070	30.31	1.5
7	163627	30.41	1.5
7	164184	30.51	1.5
7	164741	30.61	1.5
7	165298	30.71	1.5
7	165855	30.81	1.5
7	166412	30.91	1.5
7	166977	31.01	1.5
7	167534	31.11	1.5
7	168091	31.21	1.5
7	168648	31.31	1.5
7	169205	31.41	1.5
7	169762	31.51	1.5
7	170319	31.61	1.5
7	170876	31.71	1.5
7	171433	31.81	1.5
7	171990	31.91	1.2601181665204
7	172555	32.01	0.8482520712972
7	173112	32.11	0.41903673064365
7	173669	32.21	-0.016893952363397
7	174226	32.31	-0.44949259223633
7	174783	32.41	-0.8693892809368
7	175340	32.51	-1.2679727801776
7	175897	32.61	-1.5
7	176454	32.71	-1.5
7	177011	32.81	-1.5
7	177568	32.91	-1.5
7	178133	33.01	-1.5
7	178690	33.11	-1.5
7	179247	33.21	-1.5
7	179804	33.31	-1.5
7	180361	33.41	-1.5
7	180918	33.51	-1.5
7	181475	33.61	-1.5
7	182032	33.71	-1.5
7	182589	33.81	-1.5
7	183146	33.91	-1.5
7	183711	34.01	-1.5
7	184268	34.11	-1.5
7	184825	34.21	-1.5
7	185382	34.31	-1.5
7	185939	34.41	-1.2601718862041
7	186496	34.51	-0.84830501011592
7	187053	34.61	-0.41908807937801
7	187610	34.71	0.016844829035612
7	188167	34.81	0.44944617558609
7	188724	34.91	0.86934591722741
7	189289	35.01	1.2679326987083
7	189846	35.11	1.5
7	190403	35.21	1.5
7	190960	35.31	1.5
7	191517	35.41	1.5
7	192074	35.51	1.5
7	192631	35.61	1.5
7	193188	35.71	1.5
7	193745	35.81	1.5
7	194302	35.91	1.5
7	194867	36.01	1.5
7	195424	36.11	1.5
7	195981	36.21	1.5
7	196538	36.31	1.5
7	197095	36.41	1.5
7	197652	36.51	1.5
7	198209	36.61	1.5
7	198766	36.71	1.5
7	199323	36.81	1.5
7	199880	36.91	1.2601519506571
7	200445	37.01	0.84828536435039
7	201002	37.11	0.41906902369788
7	201559	37.21	-0.016863058860221
7	202116	37.31	-0.44946340095391
7	202673	37.41	-0.86936200963904
7	203230	37.51	-1.2679475730701
7	203787	37.61	-1.5
7	204344	37.71	-1.5
7	204901	37.81	-1.5
7	205458	37.91	-1.5
7	206023	38.01	-1.5
7	206580	38.11	-1.5
7	207137	38.21	-1.5
7	207694	38.31	-1.5
7	208251	38.41	-1.5
7	208808	38.51	-1.5
7	209365	38.61	-1.5
7	209922	38.71	-1.5
7	210479	38.81	-1.5
7	211036	38.91	-1.5
7	211601	39.01	-1.5
7	212158	39.11	-1.5
7	212715	39.21	-1.5
7	213272	39.31	-1.5
7	213829	39.41	-1.2601593488036
7	214386	39.51	-0.84829265495814
7	214943	39.61	-0.41907609532306
7	215500	39.71	0.01685629371266
7	216057	39.81	0.44945700856354
7	216614	39.91	0.86935603769241
7	217179	40.01	1.2679420531458
7	217736	40.11	1.5
6	232	1.11	-1.2391545567425e-07
6	788	1.21	-2.514333630188e-07
6	1344	1.31	-3.5153284727585e-07
6	1900	1.41	-4.2734420446777e-07
6	2456	1.51	-4.8187125401e-07
6	3012	1.61	-5.1795971955926e-07
6	3568	1.71	-5.3827413637464e-07
6	4124	1.81	-5.4528506154838e-07
6	4680	1.91	-5.4125663950799e-07
6	5244	2.01	-5.2824375984528e-07
6	5800	2.11	-5.080941889446e-07
6	6356	2.21	-4.8245141215375e-07
6	6912	2.31	-4.5276244975412e-07
6	7468	2.41	-4.202860282021e-07
6	8024	2.51	-3.8610643571246e-07
6	8580	2.61	-3.5114133822844e-07
6	9136	2.71	-3.1616025353287e-07
6	9692	2.81	-2.8179307776099e-07
6	10248	2.91	-2.4854536206931e-07
6	10812	3.01	-2.1681287876163e-07
6	11368	3.11	-1.8689298997288e-07
6	11924	3.21	-1.5899530581009e-07
6	12480	3.31	-1.3325838210676e-07
6	13036	3.41	-1.0975469422192e-07
6	13592	3.51	-8.8505203166278e-08
6	14148	3.61	-6.948575048682e-08
6	14704	3.71	-5.263665059374e-08
6	15260	3.81	-3.7870506730542e-08
6	15816	3.91	-2.5077895315917e-08
6	16380	4.01	-1.4133405557004e-08
6	16936	4.11	-4.9016790626411e-09
6	17492	4.21	2.7593927143243e-09
6	18048	4.31	8.9940499492513e-09
6	18604	4.41	1.3947598631603e-08
6	19160	4.51	1.7761081494427e-08
6	19716	4.61	2.0570567471623e-08
6	20272	4.71	2.2507151697937e-08
6	20828	4.81	2.3691626438449e-08
6	21384	4.91	2.4239099616352e-08
6	21949	5.01	2.4253310471067e-08
6	22506	5.11	0.0068264526728257
6	23063	5.21	0.074594836732089
6	23620	5.31	0.19005134681258
6	24177	5.41	0.34050272642077
6	24734	5.51	0.51301638947834
6	25291	5.61	0.6902545856434
6	25848	5.71	0.83572672600098
6	26405	5.81	0.95506454902292
6	26962	5.91	1.0529631292492
6	27527	6.01	1.133274063098
6	28084	6.11	1.1991570011418
6	28641	6.21	1.2532039573571
6	29198	6.31	1.2975412860019
6	29755	6.41	1.333913338177
6	30312	6.51	1.3635927249268
6	30869	6.61	1.3702053615898
6	31426	6.71	1.3272611926745
6	31983	6.81	1.2373810921854
6	32540	6.91	1.1040433755532
6	33105	7.01	0.93147092012096
6	33662	7.11	0.72451590565734
6	34219	7.21	0.48854318346834
6	34776	7.31	0.2293132962599
6	35333	7.41	-0.044839398398011
6	35890	7.51	-0.30626147443016
6	36447	7.61	-0.52071863005345
6	37004	7.71	-0.69664819306503
6	37561	7.81	-0.84097171097959
6	38118	7.91	-0.95936726353223
6	38683	8.01	-1.0564928537818
6	39240	8.11	-1.1361696666178
6	39797	8.21	-1.2015324045674
6	40354	8.31	-1.2551526155189
6	40911	8.41	-1.2991398644115
6	41468	8.51	-1.3352247292573
6	42025	8.61	-1.3648268867847
6	42582	8.71	-1.3891109663845
6	43139	8.81	-1.4090323697992
6	43696	8.91	-1.4253748592211
6	44261	9.01	-1.4387813926344
6	44818	9.11	-1.4497794195275
6	45375	9.21	-1.4588016321909
6	45932	9.31	-1.4662029890104
6	46489	9.41	-1.4722746794938
6	47046	9.51	-1.4696249146823
6	47603	9.61	-1.3967850639141
6	48160	9.71	-1.2587757641274
6	48717	9.81	-1.0660952217858
6	49274	9.91	-0.82923335017639
6	49839	10.01	-0.55852907832801
6	50396	10.11	-0.26404116068406
6	50953	10.21	0.03943269874469
6	51510	10.31	0.30182609756224
6	52067	10.41	0.51708007617997
6	52624	10.51	0.69366331158065
6	53181	10.61	0.83852306852847
6	53738	10.71	0.95735852386056
6	54295	10.81	1.0548449876072
6	54852	10.91	1.1348178424026
6	55417	11.01	1.2004234378704
6	55974	11.11	1.2542428765748
6	56531	11.21	1.2983935616166
6	57088	11.31	1.3346125010283
6	57645	11.41	1.3643246463978
6	58202	11.51	1.3886989543376
6	58759	11.61	1.4086943764163
6	59316	11.71	1.4250975869238
6	59873	11.81	1.4385539327762
6	60430	11.91	1.4345627372837
6	60995	12.01	1.3623449188774
6	61552	12.11	1.2299875654499
6	62109	12.21	1.0461448397812
6	62666	12.31	0.81967864249357
6	63223	12.41	0.55952045905059
6	63780	12.51	0.27454262949682
6	64337	12.61	-0.02234164487227
6	64894	12.71	-0.28780548057448
6	65451	12.81	-0.50557828687161
6	66008	12.91	-0.68422783827593
6	66573	13.01	-0.83078269404453
6	67130	13.11	-0.95100872081275
6	67687	13.21	-1.0496359374716
6	68244	13.31	-1.1305446069798
6	68801	13.41	-1.1969178964556
6	69358	13.51	-1.2513671116345
6	69915	13.61	-1.2960344327361
6	70472	13.71	-1.3326771936619
6	71029	13.81	-1.3627370202897
6	71586	13.91	-1.3873965479586
6	72151	14.01	-1.4076259495578
6	72708	14.11	-1.4242211047666
6	73265	14.21	-1.4378349121291
6	73822	14.31	-1.4490029758537
6	74379	14.41	-1.4542593951845
6	74936	14.51	-1.4067454390027
6	75493	14.61	-1.2938574955285
6	76050	14.71	-1.1248409052222
6	76607	14.81	-0.90912582142266
6	77164	14.91	-0.65618298375618
6	77729	15.01	-0.37539052553193
6	78286	15.11	-0.078063005083351
6	78843	15.21	0.20543869668366
6	79400	15.31	0.43800883574043
6	79957	15.41	0.62879735391697
6	80514	15.51	0.78531039043881
6	81071	15.61	0.91370559385808
6	81628	15.71	1.0190343806951
6	82185	15.81	1.1054406719047
6	82742	15.91	1.1763239259967
6	83307	16.01	1.2344728829817
6	83864	16.11	1.2821752809831
6	84421	16.21	1.3213078620836
6	84978	16.31	1.3534102084598
6	85535	16.41	1.3797453137308
6	86092	16.51	1.4013492725667
6	86649	16.61	1.4190720434691
6	87206	16.71	1.4336108884482
6	87763	16.81	1.4455378052084
6	88320	16.91	1.4502949065335
6	88885	17.01	1.3935559567532
6	89442	17.11	1.2733368701447
6	89999	17.21	1.098674244054
6	90556	17.31	0.87879676591527
6	91113	17.41	0.62298329276125
6	91670	17.51	0.34043137853565
6	92227	17.61	0.043031849081743
6	92784	17.71	-0.23417644595263
6	93341	17.81	-0.46158379949546
6	93898	17.91	-0.64813703535336
6	94463	18.01	-0.80117566522588
6	95020	18.11	-0.92672064505699
6	95577	18.21	-1.0297112558188
6	96134	18.31	-1.1141994282603
6	96691	18.41	-1.1835091568827
6	97248	18.51	-1.2403672749226
6	97805	18.61	-1.2870107353905
6	98362	18.71	-1.3252746188858
6	98919	18.81	-1.3566643306586
6	99476	18.91	-1.382414827345
6	100041	19.01	-1.4035392035215
6	100598	19.11	-1.4208685496044
6	101155	19.21	-1.4350846492011
6	101712	19.31	-1.4467468023362
6	102269	19.41	-1.4517201941775
6	102826	19.51	-1.3984004323884
6	103383	19.61	-1.280899381009
6	103940	19.71	-1.1083308503771
6	104497	19.81	-0.88999806036796
6	105054	19.91	-0.63525086466818
6	105619	20.01	-0.35335363991322
6	106176	20.11	-0.055983891306965
6	106733	20.21	0.22355126013309
6	107290	20.31	0.45286744637245
6	107847	20.41	0.64098658988812
6	108404	20.51	0.79530980944469
6	108961	20.61	0.92190860023926
6	109518	20.71	1.0257637030335
6	110075	20.81	1.1109610600446
6	110632	20.91	1.1808525670222
6	111197	21.01	1.2381879459468
6	111754	21.11	1.2852229265704
6	112311	21.21	1.32380799296
6	112868	21.31	1.3554611865732
6	113425	21.41	1.3814278301393
6	113982	21.51	1.402729522043
6	114539	21.61	1.4202043287796
6	115096	21.71	1.4345397567766
6	115653	21.81	1.4462998007627
6	116210	21.91	1.4512038299461
6	116775	22.01	1.3966149622046
6	117332	22.11	1.2781048258542
6	117889	22.21	1.104758616826
6	118446	22.31	0.88585193073989
6	119003	22.41	0.63070830476128
6	119560	22.51	0.3485673438103
6	120117	22.61	0.051185654371366
6	120674	22.71	-0.22748748564538
6	121231	22.81	-0.45609652227974
6	121788	22.91	-0.64363555681837
6	122353	23.01	-0.79748288496262
6	122910	23.11	-0.92369127904597
6	123467	23.21	-1.0272261205628
6	124024	23.31	-1.1121607517783
6	124581	23.41	-1.1818367320963
6	125138	23.51	-1.238995304092
6	125695	23.61	-1.2858852414524
6	126252	23.71	-1.3243513218473
6	126809	23.81	-1.355906905502
6	127366	23.91	-1.3817934749046
6	127931	24.01	-1.403029478104
6	128488	24.11	-1.4204503972248
6	129045	24.21	-1.434741618608
6	129602	24.31	-1.4464653977726
6	130159	24.41	-1.4513952146881
6	130716	24.51	-1.3972773206763
6	131273	24.61	-1.2791416668563
6	131830	24.71	-1.1060840673021
6	132387	24.81	-0.88739036841652
6	132944	24.91	-0.63239387292597
6	133509	25.01	-0.35034337810913
6	134066	25.11	-0.052966136909305
6	134623	25.21	0.2260268698226
6	135180	25.31	0.45489830857264
6	135737	25.41	0.64265260424108
6	136294	25.51	0.79667652148672
6	136851	25.61	0.92302978013947
6	137408	25.71	1.026683461059
6	137965	25.81	1.1117155819772
6	138522	25.91	1.1814715378073
6	139087	26.01	1.2386957175785
6	139644	26.11	1.2856394761656
6	140201	26.21	1.3241497087126
6	140758	26.31	1.3557415125099
6	141315	26.41	1.381657795045
6	141872	26.51	1.4029181733619
6	142429	26.61	1.4203590885685
6	142986	26.71	1.4346667137069
6	143543	26.81	1.4464039496644
6	144100	26.91	1.4513241957726
6	144665	27.01	1.3970315218256
6	145222	27.11	1.2787568961965
6	145779	27.21	1.1055921925461
6	146336	27.31	0.88681945319387
6	146893	27.41	0.63176835684509
6	147450	27.51	0.34968428947479
6	148007	27.61	0.052305397195695
6	148564	27.71	-0.22656890652364
6	149121	27.81	-0.45534296745835
6	149678	27.91	-0.64301737940227
6	150243	28.01	-0.79697576417033
6	150800	28.11	-0.92327526336611
6	151357	28.21	-1.0268848428069
6	151914	28.31	-1.1118807851517
6	152471	28.41	-1.1816070619506
6	153028	28.51	-1.2388068945789
6	153585	28.61	-1.2857306800289
6	154142	28.71	-1.3242245276459
6	154699	28.81	-1.3558028900945
6	155256	28.91	-1.3817081460427
6	155821	29.01	-1.4029594787171
6	156378	29.11	-1.4203929733469
6	156935	29.21	-1.4346945110272
6	157492	29.31	-1.4464267531491
6	158049	29.41	-1.4513505510322
6	158606	29.51	-1.3971227384758
6	159163	29.61	-1.2788996857299
6	159720	29.71	-1.1057747287548
6	160277	29.81	-0.88703132157519
6	160834	29.91	-0.63200048778356
6	161399	30.01	-0.34992887929945
6	161956	30.11	-0.052550599747647
6	162513	30.21	0.2263677550264
6	163070	30.31	0.45517795317025
6	163627	30.41	0.64288201021157
6	164184	30.51	0.7968647142846
6	164741	30.61	0.92318416378134
6	165298	30.71	1.0268101094169
6	165855	30.81	1.1118194777417
6	166412	30.91	1.1815567685211
6	166977	31.01	1.2387656364492
6	167534	31.11	1.2856968339921
6	168091	31.21	1.3241967621074
6	168648	31.31	1.3557801126822
6	169205	31.41	1.3816894606308
6	169762	31.51	1.4029441501705
6	170319	31.61	1.4203803985996
6	170876	31.71	1.4346841953547
6	171433	31.81	1.4464182907037
6	171990	31.91	1.451340770512
6	172555	32.01	1.397088887688
6	173112	32.11	1.2788466960817
6	173669	32.21	1.105706988989
6	174226	32.31	0.88695269654693
6	174783	32.41	0.6319143432556
6	175340	32.51	0.34983811123936
6	175897	32.61	0.052459604302157
6	176454	32.71	-0.22644240298604
6	177011	32.81	-0.45523919049693
6	177568	32.91	-0.64293224614822
6	178133	33.01	-0.7969059252499
6	178690	33.11	-0.92321797112582
6	179247	33.21	-1.0268378432144
6	179804	33.31	-1.1118422291158
6	180361	33.41	-1.181575432572
6	180918	33.51	-1.2387809474717
6	181475	33.61	-1.2857093943634
6	182032	33.71	-1.3242070659867
6	182589	33.81	-1.3557885654517
6	183146	33.91	-1.3816963948457
6	183711	34.01	-1.4029498386424
6	184268	34.11	-1.4203850651278
6	184825	34.21	-1.434688023533
6	185382	34.31	-1.4464214311442
6	185939	34.41	-1.4513444000944
6	186496	34.51	-1.3971014498232
6	187053	34.61	-1.2788663607086
6	187610	34.71	-1.1057321274318
6	188167	34.81	-0.88698187454561
6	188724	34.91	-0.63194631176522
6	189289	35.01	-0.34987179555621
6	189846	35.11	-0.052493373001994
6	190403	35.21	0.22641470089013
6	190960	35.31	0.45521646512974
6	191517	35.41	0.64291360343276
6	192074	35.51	0.79689063173021
6	192631	35.61	0.9232054251143
6	193188	35.71	1.0268275511155
6	193745	35.81	1.1118337860104
6	194302	35.91	1.1815685062846
6	194867	36.01	1.2387752655037
6	195424	36.11	1.2857047331707
6	195981	36.21	1.324203242185
6	196538	36.31	1.3557854286034
6	197095	36.41	1.3816938215378
6	197652	36.51	1.4029477276342
6	198209	36.61	1.4203833333653
6	198766	36.71	1.4346866028841
6	199323	36.81	1.4464202657173
6	199880	36.91	1.4513430531448
6	200445	37.01	1.3970967879747
6	201002	37.11	1.2788590631025
6	201559	37.21	1.1057227984747
6	202116	37.31	0.8869710464964
6	202673	37.41	0.63193444814829
6	203230	37.51	0.34985929519813
6	203787	37.61	0.052480841329228
6	204344	37.71	-0.22642498122742
6	204901	37.81	-0.45522489858705
6	205458	37.91	-0.64292052180406
6	206023	38.01	-0.79689630720416
6	206580	38.11	-0.92321008097898
6	207137	38.21	-1.0268313705456
6	207694	38.31	-1.1118369192733
6	208251	38.41	-1.1815710766513
6	208808	38.51	-1.2387773740993
6	209365	38.61	-1.2857064629529
6	209922	38.71	-1.3242046612092
6	210479	38.81	-1.3557865926966
6	211036	38.91	-1.3816947764997
6	211601	39.01	-1.4029485110349
6	212158	39.11	-1.420383976027
6	212715	39.21	-1.4346871300905
6	213272	39.31	-1.4464206982101
6	213829	39.41	-1.4513435530016
6	214386	39.51	-1.3970985180016
6	214943	39.61	-1.2788617712673
6	215500	39.71	-1.1057262604808
6	216057	39.81	-0.88697506482056
6	216614	39.91	-0.63193885077553
6	217179	40.01	-0.34986393412169
6	217736	40.11	-0.052485491873711
5	232	1.11	36.55
5	788	1.21	36.55
5	1344	1.31	36.55
5	1900	1.41	36.55
5	2456	1.51	36.55
5	3012	1.61	36.55
5	3568	1.71	36.55
5	4124	1.81	36.55
5	4680	1.91	36.55
5	5244	2.01	36.55
5	5800	2.11	36.55
5	6356	2.21	36.55
5	6912	2.31	36.55
5	7468	2.41	36.55
5	8024	2.51	36.55
5	8580	2.61	36.55
5	9136	2.71	36.55
5	9692	2.81	36.55
5	10248	2.91	36.55
5	10812	3.01	36.55
5	11368	3.11	36.55
5	11924	3.21	36.55
5	12480	3.31	36.55
5	13036	3.41	36.55
5	13592	3.51	36.55
5	14148	3.61	36.55
5	14704	3.71	36.55
5	15260	3.81	36.55
5	15816	3.91	36.55
5	16380	4.01	36.55
5	16936	4.11	36.55
5	17492	4.21	36.55
5	18048	4.31	36.55
5	18604	4.41	36.55
5	19160	4.51	36.55
5	19716	4.61	36.55
5	20272	4.71	36.55
5	20828	4.81	36.55
5	21384	4.91	36.55
5	21949	5.01	36.55
5	22506	5.11	36.55
5	23063	5.21	36.55
5	23620	5.31	36.55
5	24177	5.41	36.55
5	24734	5.51	36.55
5	25291	5.61	36.55
5	25848	5.71	36.55
5	26405	5.81	36.55
5	26962	5.91	36.55
5	27527	6.01	36.55
5	28084	6.11	36.55
5	28641	6.21	36.55
5	29198	6.31	36.55
5	29755	6.41	36.55
5	30312	6.51	36.55
5	30869	6.61	36.55
5	31426	6.71	36.55
5	31983	6.81	36.55
5	32540	6.91	36.55
5	33105	7.01	36.55
5	33662	7.11	36.55
5	34219	7.21	36.55
5	34776	7.31	36.55
5	35333	7.41	36.55
5	35890	7.51	36.55
5	36447	7.61	36.55
5	37004	7.71	36.55
5	37561	7.81	36.55
5	38118	7.91	36.55
5	38683	8.01	36.55
5	39240	8.11	36.55
5	39797	8.21	36.55
5	40354	8.31	36.55
5	40911	8.41	36.55
5	41468	8.51	36.55
5	42025	8.61	36.55
5	42582	8.71	36.55
5	43139	8.81	36.55
5	43696	8.91	36.55
5	44261	9.01	36.55
5	44818	9.11	36.55
5	45375	9.21	36.55
5	45932	9.31	36.55
5	46489	9.41	36.55
5	47046	9.51	36.55
5	47603	9.61	36.55
5	48160	9.71	36.55
5	48717	9.81	36.55
5	49274	9.91	36.55
5	49839	10.01	36.55
5	50396	10.11	36.55
5	50953	10.21	36.55
5	51510	10.31	36.55
5	52067	10.41	36.55
5	52624	10.51	36.55
5	53181	10.61	36.55
5	53738	10.71	36.55
5	54295	10.81	36.55
5	54852	10.91	36.55
5	55417	11.01	36.55
5	55974	11.11	36.55
5	56531	11.21	36.55
5	57088	11.31	36.55
5	57645	11.41	36.55
5	58202	11.51	36.55
5	58759	11.61	36.55
5	59316	11.71	36.55
5	59873	11.81	36.55
5	60430	11.91	36.55
5	60995	12.01	36.55
5	61552	12.11	36.55
5	62109	12.21	36.55
5	62666	12.31	36.55
5	63223	12.41	36.55
5	63780	12.51	36.55
5	64337	12.61	36.55
5	64894	12.71	36.55
5	65451	12.81	36.55
5	66008	12.91	36.55
5	66573	13.01	36.55
5	67130	13.11	36.55
5	67687	13.21	36.55
5	68244	13.31	36.55
5	68801	13.41	36.55
5	69358	13.51	36.55
5	69915	13.61	36.55
5	70472	13.71	36.55
5	71029	13.81	36.55
5	71586	13.91	36.55
5	72151	14.01	36.55
5	72708	14.11	36.55
5	73265	14.21	36.55
5	73822	14.31	36.55
5	74379	14.41	36.55
5	74936	14.51	36.55
5	75493	14.61	36.55
5	76050	14.71	36.55
5	76607	14.81	36.55
5	77164	14.91	36.55
5	77729	15.01	36.55
5	78286	15.11	36.55
5	78843	15.21	36.55
5	79400	15.31	36.55
5	79957	15.41	36.55
5	80514	15.51	36.55
5	81071	15.61	36.55
5	81628	15.71	36.55
5	82185	15.81	36.55
5	82742	15.91	36.55
5	83307	16.01	36.55
5	83864	16.11	36.55
5	84421	16.21	36.55
5	84978	16.31	36.55
5	85535	16.41	36.55
5	86092	16.51	36.55
5	86649	16.61	36.55
5	87206	16.71	36.55
5	87763	16.81	36.55
5	88320	16.91	36.55
5	88885	17.01	36.55
5	89442	17.11	36.55
5	89999	17.21	36.55
5	90556	17.31	36.55
5	91113	17.41	36.55
5	91670	17.51	36.55
5	92227	17.61	36.55
5	92784	17.71	36.55
5	93341	17.81	36.55
5	93898	17.91	36.55
5	94463	18.01	36.55
5	95020	18.11	36.55
5	95577	18.21	36.55
5	96134	18.31	36.55
5	96691	18.41	36.55
5	97248	18.51	36.55
5	97805	18.61	36.55
5	98362	18.71	36.55
5	98919	18.81	36.55
5	99476	18.91	36.55
5	100041	19.01	36.55
5	100598	19.11	36.55
5	101155	19.21	36.55
5	101712	19.31	36.55
5	102269	19.41	36.55
5	102826	19.51	36.55
5	103383	19.61	36.55
5	103940	19.71	36.55
5	104497	19.81	36.55
5	105054	19.91	36.55
5	105619	20.01	36.55
5	106176	20.11	36.55
5	106733	20.21	36.55
5	107290	20.31	36.55
5	107847	20.41	36.55
5	108404	20.51	36.55
5	108961	20.61	36.55
5	109518	20.71	36.55
5	110075	20.81	36.55
5	110632	20.91	36.55
5	111197	21.01	36.55
5	111754	21.11	36.55
5	112311	21.21	36.55
5	112868	21.31	36.55
5	113425	21.41	36.55
5	113982	21.51	36.55
5	114539	21.61	36.55
5	115096	21.71	36.55
5	115653	21.81	36.55
5	116210	21.91	36.55
5	116775	22.01	36.55
5	117332	22.11	36.55
5	117889	22.21	36.55
5	118446	22.31	36.55
5	119003	22.41	36.55
5	119560	22.51	36.55
5	120117	22.61	36.55
5	120674	22.71	36.55
5	121231	22.81	36.55
5	121788	22.91	36.55
5	122353	23.01	36.55
5	122910	23.11	36.55
5	123467	23.21	36.55
5	124024	23.31	36.55
5	124581	23.41	36.55
5	125138	23.51	36.55
5	125695	23.61	36.55
5	126252	23.71	36.55
5	126809	23.81	36.55
5	127366	23.91	36.55
5	127931	24.01	36.55
5	128488	24.11	36.55
5	129045	24.21	36.55
5	129602	24.31	36.55
5	130159	24.41	36.55
5	130716	24.51	36.55
5	131273	24.61	36.55
5	131830	24.71	36.55
5	132387	24.81	36.55
5	132944	24.91	36.55
5	133509	25.01	36.55
5	134066	25.11	36.55
5	134623	25.21	36.55
5	135180	25.31	36.55
5	135737	25.41	36.55
5	136294	25.51	36.55
5	136851	25.61	36.55
5	137408	25.71	36.55
5	137965	25.81	36.55
5	138522	25.91	36.55
5	139087	26.01	36.55
5	139644	26.11	36.55
5	140201	26.21	36.55
5	140758	26.31	36.55
5	141315	26.41	36.55
5	141872	26.51	36.55
5	142429	26.61	36.55
5	142986	26.71	36.55
5	143543	26.81	36.55
5	144100	26.91	36.55
5	144665	27.01	36.55
5	145222	27.11	36.55
5	145779	27.21	36.55
5	146336	27.31	36.55
5	146893	27.41	36.55
5	147450	27.51	36.55
5	148007	27.61	36.55
5	148564	27.71	36.55
5	149121	27.81	36.55
5	149678	27.91	36.55
5	150243	28.01	36.55
5	150800	28.11	36.55
5	151357	28.21	36.55
5	151914	28.31	36.55
5	152471	28.41	36.55
5	153028	28.51	36.55
5	153585	28.61	36.55
5	154142	28.71	36.55
5	154699	28.81	36.55
5	155256	28.91	36.55
5	155821	29.01	36.55
5	156378	29.11	36.55
5	156935	29.21	36.55
5	157492	29.31	36.55
5	158049	29.41	36.55
5	158606	29.51	36.55
5	159163	29.61	36.55
5	159720	29.71	36.55
5	160277	29.81	36.55
5	160834	29.91	36.55
5	161399	30.01	36.55
5	161956	30.11	36.55
5	162513	30.21	36.55
5	163070	30.31	36.55
5	163627	30.41	36.55
5	164184	30.51	36.55
5	164741	30.61	36.55
5	165298	30.71	36.55
5	165855	30.81	36.55
5	166412	30.91	36.55
5	166977	31.01	36.55
5	167534	31.11	36.55
5	168091	31.21	36.55
5	168648	31.31	36.55
5	169205	31.41	36.55
5	169762	31.51	36.55
5	170319	31.61	36.55
5	170876	31.71	36.55
5	171433	31.81	36.55
5	171990	31.91	36.55
5	172555	32.01	36.55
5	173112	32.11	36.55
5	173669	32.21	36.55
5	174226	32.31	36.55
5	174783	32.41	36.55
5	175340	32.51	36.55
5	175897	32.61	36.55
5	176454	32.71	36.55
5	177011	32.81	36.55
5	177568	32.91	36.55
5	178133	33.01	36.55
5	178690	33.11	36.55
5	179247	33.21	36.55
5	179804	33.31	36.55
5	180361	33.41	36.55
5	180918	33.51	36.55
5	181475	33.61	36.55
5	182032	33.71	36.55
5	182589	33.81	36.55
5	183146	33.91	36.55
5	183711	34.01	36.55
5	184268	34.11	36.55
5	184825	34.21	36.55
5	185382	34.31	36.55
5	185939	34.41	36.55
5	186496	34.51	36.55
5	187053	34.61	36.55
5	187610	34.71	36.55
5	188167	34.81	36.55
5	188724	34.91	36.55
5	189289	35.01	36.55
5	189846	35.11	36.55
5	190403	35.21	36.55
5	190960	35.31	36.55
5	191517	35.41	36.55
5	192074	35.51	36.55
5	192631	35.61	36.55
5	193188	35.71	36.55
5	193745	35.81	36.55
5	194302	35.91	36.55
5	194867	36.01	36.55
5	195424	36.11	36.55
5	195981	36.21	36.55
5	196538	36.31	36.55
5	197095	36.41	36.55
5	197652	36.51	36.55
5	198209	36.61	36.55
5	198766	36.71	36.55
5	199323	36.81	36.55
5	199880	36.91	36.55
5	200445	37.01	36.55
5	201002	37.11	36.55
5	201559	37.21	36.55
5	202116	37.31	36.55
5	202673	37.41	36.55
5	203230	37.51	36.55
5	203787	37.61	36.55
5	204344	37.71	36.55
5	204901	37.81	36.55
5	205458	37.91	36.55
5	206023	38.01	36.55
5	206580	38.11	36.55
5	207137	38.21	36.55
5	207694	38.31	36.55
5	208251	38.41	36.55
5	208808	38.51	36.55
5	209365	38.61	36.55
5	209922	38.71	36.55
5	210479	38.81	36.55
5	211036	38.91	36.55
5	211601	39.01	36.55
5	212158	39.11	36.55
5	212715	39.21	36.55
5	213272	39.31	36.55
5	213829	39.41	36.55
5	214386	39.51	36.55
5	214943	39.61	36.55
5	215500	39.71	36.55
5	216057	39.81	36.55
5	216614	39.91	36.55
5	217179	40.01	36.55
5	217736	40.11	36.55
4	232	1.11	204.21764297459
4	788	1.21	206.99542083538
4	1344	1.31	209.77319869345
4	1900	1.41	212.55097654785
4	2456	1.51	215.32875439787
4	3012	1.61	218.106532243
4	3568	1.71	220.88431008291
4	4124	1.81	223.66208791742
4	4680	1.91	226.43986574648
4	5244	2.01	229.21764357016
4	5800	2.11	231.9954213886
4	6356	2.21	234.773199202
4	6912	2.31	237.55097701064
4	7468	2.41	240.32875481482
4	8024	2.51	243.10653261486
4	8580	2.61	245.88431041112
4	9136	2.71	248.66208820393
4	9692	2.81	251.43986599364
4	10248	2.91	254.21764378061
4	10812	3.01	256.99542156516
4	11368	3.11	259.77319934759
4	11924	3.21	262.55097712822
4	12480	3.31	265.3287549073
4	13036	3.41	268.1065326851
4	13592	3.51	270.88431046185
4	14148	3.61	273.66208823775
4	14704	3.71	276.43986601299
4	15260	3.81	279.21764378773
4	15816	3.91	281.99542156211
4	16380	4.01	284.77319933627
4	16936	4.11	287.55097711031
4	17492	4.21	290.32875488431
4	18048	4.31	293.10653265835
4	18604	4.41	295.8843104325
4	19160	4.51	298.66208820679
4	19716	4.61	301.43986598126
4	20272	4.71	304.21764375594
4	20828	4.81	306.99542153085
4	21384	4.91	309.773199306
4	21949	5.01	312.55097708139
4	22506	5.11	315.32875622231
4	23063	5.21	318.10676186517
4	23620	5.31	320.88576760165
4	24177	5.41	323.66699805937
4	24734	5.51	326.45200322204
4	25291	5.61	329.24251795207
4	25848	5.71	332.04022773395
4	26405	5.81	334.84653460807
4	26962	5.91	337.66258886772
4	27527	6.01	340.489334154
4	28084	6.11	343.3275445813
4	28641	6.21	346.17785519306
4	29198	6.31	349.04078694607
4	29755	6.41	351.91676720634
4	30312	6.51	354.80614653119
4	30869	6.61	357.70918267053
4	31426	6.71	360.62582919142
4	31983	6.81	363.55555957731
4	32540	6.91	366.49738505188
4	33105	7.01	369.44989090231
4	33662	7.11	372.41128001412
4	34219	7.21	375.37942246134
4	34776	7.31	378.35190998463
4	35333	7.41	381.32611464703
4	35890	7.51	384.2993235213
4	36447	7.61	387.26903880106
4	37004	7.71	390.23319334101
4	37561	7.81	393.19009136201
4	38118	7.91	396.13834173453
4	38683	8.01	399.07680324781
4	39240	8.11	402.00453971155
4	39797	8.21	404.92078312365
4	40354	8.31	407.82490345485
4	40911	8.41	410.71638386177
4	41468	8.51	413.59480035277
4	42025	8.61	416.45980510707
4	42582	8.71	419.31111279045
4	43139	8.81	422.14848932951
4	43696	8.91	424.97174270249
4	44261	9.01	427.78071538469
4	44818	9.11	430.575278151
4	45375	9.21	433.35532499178
4	45932	9.31	436.12076894225
4	46489	9.41	438.87153866098
4	47046	9.51	441.60757788594
4	47603	9.61	444.32908191752
4	48160	9.71	447.03691207704
4	48717	9.81	449.7325601269
4	49274	9.91	452.41804318015
4	49839	10.01	455.09579907629
4	50396	10.11	457.76858353216
4	50953	10.21	460.43936930701
4	51510	10.31	463.11108461477
4	52067	10.41	465.78625076459
4	52624	10.51	468.46694258231
4	53181	10.61	471.15486214781
4	53738	10.71	473.85140575942
4	54295	10.81	476.55771886809
4	54852	10.91	479.27474114256
4	55417	11.01	482.0032434385
4	55974	11.11	484.74385812604
4	56531	11.21	487.49710396892
4	57088	11.31	490.26340653413
4	57645	11.41	493.04311493479
4	58202	11.51	495.83651556529
4	58759	11.61	498.64384336875
4	59316	11.71	501.46529108037
4	59873	11.81	504.30101681016
4	60430	11.91	507.15113546396
4	60995	12.01	510.01544201201
4	61552	12.11	512.89309113833
4	62109	12.21	515.7826537416
4	62666	12.31	518.68220393117
4	63223	12.41	521.58940781832
4	63780	12.51	524.50161273943
4	64337	12.61	527.41593648631
4	64894	12.71	530.32949030983
4	65451	12.81	533.23972843555
4	66008	12.91	536.14455175872
4	66573	13.01	539.04223828232
4	67130	13.11	541.93137536903
4	67687	13.21	544.81080416421
4	68244	13.31	547.67957400345
4	68801	13.41	550.53690501079
4	69358	13.51	553.38215741634
4	69915	13.61	556.21480638593
4	70472	13.71	559.03442137277
4	71029	13.81	561.84064917851
4	71586	13.91	564.6332000575
4	72151	14.01	567.41183631737
4	72708	14.11	570.17636296761
4	73265	14.21	572.92662004807
4	73822	14.31	575.66247633572
4	74379	14.41	578.38382496303
4	74936	14.51	581.09073246784
4	75493	14.61	583.78381415618
4	76050	14.71	586.46431376267
4	76607	14.81	589.13401710464
4	77164	14.91	591.79515766632
4	77729	15.01	594.45032204977
4	78286	15.11	597.10235617339
4	78843	15.21	599.75420291093
4	79400	15.31	602.4085714156
4	79957	15.41	605.06770342315
4	80514	15.51	607.73343793771
4	81071	15.61	610.40728358315
4	81628	15.71	613.09047795652
4	82185	15.81	615.78403631847
4	82742	15.91	618.48879153633
4	83307	16.01	621.20542685139
4	83864	16.11	623.9345027595
4	84421	16.21	626.67647906248
4	84978	16.31	629.43173295794
4	85535	16.41	632.20057387934
4	86092	16.51	634.98325566985
4	86649	16.61	637.77998656933
4	87206	16.71	640.59093740695
4	87763	16.81	643.41624832216
4	88320	16.91	646.25603326364
4	88885	17.01	649.11019572739
4	89442	17.11	651.97803734317
4	89999	17.21	654.85824444972
4	90556	17.31	657.74897775021
4	91113	17.41	660.6479647326
4	91670	17.51	663.55259232231
4	92227	17.61	666.45999905193
4	92784	17.71	669.36725927638
4	93341	17.81	672.2717207315
4	93898	17.91	675.17119144546
4	94463	18.01	678.06387323788
4	95020	18.11	680.94829097456
4	95577	18.21	683.82323453166
4	96134	18.31	686.68771118615
4	96691	18.41	689.54090655937
4	97248	18.51	692.38215257719
4	97805	18.61	695.21090118612
4	98362	18.71	698.0267027914
4	98919	18.81	700.82918856875
4	99476	18.91	703.6180559538
4	100041	19.01	706.39305673838
4	100598	19.11	709.15398730533
4	101155	19.21	711.90068061766
4	101712	19.31	714.63299964688
4	102269	19.41	717.35083290061
4	102826	19.51	720.05426554476
4	103383	19.61	722.74396511631
4	103940	19.71	725.42121934943
4	104497	19.81	728.08784770384
4	105054	19.91	730.74610820618
4	105619	20.01	733.3986040957
4	106176	20.11	736.04819105065
4	106733	20.21	738.697801063
4	107290	20.31	741.35010742887
4	107847	20.41	744.00732051928
4	108404	20.51	746.67125360832
4	108961	20.61	749.34339421231
4	109518	20.71	752.02496261273
4	110075	20.81	754.71695986545
4	110632	20.91	757.4202071849
4	111197	21.01	760.13537825298
4	111754	21.11	762.86302572348
4	112311	21.21	765.60360296499
4	112868	21.31	768.35748189767
4	113425	21.41	771.12496762559
4	113982	21.51	773.90631044035
4	114539	21.61	776.70171566824
4	115096	21.71	779.51135174835
4	115653	21.81	782.33535685937
4	116210	21.91	785.17384340732
4	116775	22.01	788.02672209998
4	117332	22.11	790.89331397764
4	117889	22.21	793.77232168006
4	118446	22.31	796.66191838019
4	119003	22.41	799.55984066907
4	119560	22.51	802.46348165013
4	120117	22.61	805.36998348888
4	120674	22.71	808.27641653802
4	121231	22.81	811.18011529248
4	121788	22.91	814.07887619745
4	122353	23.01	816.97089157049
4	122910	23.11	819.85467848238
4	123467	23.21	822.72902041464
4	124024	23.31	825.59291939843
4	124581	23.41	828.44555675169
4	125138	23.51	831.28626086998
4	125695	23.61	834.11448080377
4	126252	23.71	836.9297645825
4	126809	23.81	839.73174143295
4	127366	23.91	842.52010719188
4	127931	24.01	845.29461233953
4	128488	24.11	848.05505218278
4	129045	24.21	850.80125880198
4	129602	24.31	853.53309444452
4	130159	24.41	856.25044704284
4	130716	24.51	858.95340435752
4	131273	24.61	861.64264110919
4	131830	24.71	864.31945108573
4	132387	24.81	866.98565838005
4	132944	24.91	869.64352440358
4	133509	25.01	872.29565469551
4	134066	25.11	874.94490628998
4	134623	25.21	877.59420970423
4	135180	25.31	880.24623333431
4	135737	25.41	882.90318326434
4	136294	25.51	885.56686925166
4	136851	25.61	888.23877592763
4	137408	25.71	890.92012120704
4	137965	25.81	893.61190420426
4	138522	25.91	896.31494454103
4	139087	26.01	899.02991459267
4	139644	26.11	901.75736594112
4	140201	26.21	904.49775107568
4	140758	26.31	907.25144119521
4	141315	26.41	910.01874081202
4	141872	26.51	912.7998997323
4	142429	26.61	915.59512288412
4	142986	26.71	918.40457837987
4	143543	26.81	921.22840413027
4	144100	26.91	924.06671232848
4	144665	27.01	926.9194146455
4	145222	27.11	929.78583478758
4	145779	27.21	932.66467764111
4	146336	27.31	935.55411809853
4	146893	27.41	938.45189400713
4	147450	27.51	941.35539932399
4	148007	27.61	944.26177671794
4	148564	27.71	947.16809599458
4	149121	27.81	950.07168983071
4	149678	27.91	952.97035308084
4	150243	28.01	955.86227675762
4	150800	28.11	958.74597686137
4	151357	28.21	961.62023599547
4	151914	28.31	964.48405547065
4	152471	28.41	967.33661601389
4	153028	28.51	970.17724553595
4	153585	28.61	973.00539268957
4	154142	28.71	975.82060517795
4	154699	28.81	978.62251196021
4	155256	28.91	981.41080865356
4	155821	29.01	984.1852455581
4	156378	29.11	986.94561783297
4	156935	29.21	989.6917574373
4	157492	29.31	992.42352651903
4	158049	29.41	995.14081293164
4	158606	29.51	997.84370479315
4	159163	29.61	1000.5328778135
4	159720	29.71	1003.2096266144
4	160277	29.81	1005.8757759269
4	160834	29.91	1008.5335876284
4	161399	30.01	1011.1856675752
4	161956	30.11	1013.8348729879
4	162513	30.21	1016.484134181
4	163070	30.31	1019.1361188756
4	163627	30.41	1021.7930325657
4	164184	30.51	1024.4566845244
4	164741	30.61	1027.1285589856
4	165298	30.71	1029.8098735384
4	165855	30.81	1032.5016270298
4	166412	30.91	1035.2046388621
4	166977	31.01	1037.9195812309
4	167534	31.11	1040.6470055704
4	168091	31.21	1043.3873642489
4	168648	31.31	1046.141028366
4	169205	31.41	1048.9083023523
4	169762	31.51	1051.6894359474
4	170319	31.61	1054.4846340244
4	170876	31.71	1057.2940646507
4	171433	31.81	1060.1178657002
4	171990	31.91	1062.9561493367
4	172555	32.01	1065.8088273638
4	173112	32.11	1068.675223855
4	173669	32.21	1071.5540440061
4	174226	32.31	1074.4434629463
4	174783	32.41	1077.3412186958
4	175340	32.51	1080.2447053294
4	175897	32.61	1083.1510655852
4	176454	32.71	1086.0573691934
4	177011	32.81	1088.9609485805
4	177568	32.91	1091.8595983819
4	178133	33.01	1094.7515094305
4	178690	33.11	1097.6351975793
4	179247	33.21	1100.5094453106
4	179804	33.31	1103.3732538361
4	180361	33.41	1106.2258038012
4	180918	33.51	1109.0664230501
4	181475	33.61	1111.8945601806
4	182032	33.71	1114.7097628511
4	182589	33.81	1117.5116599837
4	183146	33.91	1120.2999471655
4	183711	34.01	1123.0743746718
4	184268	34.11	1125.8347376413
4	184825	34.21	1128.5808680165
4	185382	34.31	1131.3126279317
4	185939	34.41	1134.0299052293
4	186496	34.51	1136.7327880768
4	187053	34.61	1139.4219523203
4	187610	34.71	1142.0986926962
4	188167	34.81	1144.7648340235
4	188724	34.91	1147.422638244
4	189289	35.01	1150.0747112573
4	189846	35.11	1152.72391031
4	190403	35.21	1155.3731656885
4	190960	35.31	1158.0251450211
4	191517	35.41	1160.6820537203
4	192074	35.51	1163.3457009926
4	192631	35.61	1166.0175710173
4	193188	35.71	1168.6988813385
4	193745	35.81	1171.3906307664
4	194302	35.91	1174.0936386732
4	194867	36.01	1176.8085772295
4	195424	36.11	1179.5359978495
4	195981	36.21	1182.2763528845
4	196538	36.31	1185.0300134205
4	197095	36.41	1187.7972838771
4	197652	36.51	1190.5784139845
4	198209	36.61	1193.3736086082
4	198766	36.71	1196.1830358096
4	199323	36.81	1199.0068334573
4	199880	36.91	1201.8451137112
4	200445	37.01	1204.6977883932
4	201002	37.11	1207.5641816273
4	201559	37.21	1210.4429986518
4	202116	37.31	1213.3324146287
4	202673	37.41	1216.230167602
4	203230	37.51	1219.1336516626
4	203787	37.61	1222.0400095581
4	204344	37.71	1224.9463110085
4	204901	37.81	1227.8498884057
4	205458	37.91	1230.748536355
4	206023	38.01	1233.6404456645
4	206580	38.11	1236.5241321668
4	207137	38.21	1239.3983783278
4	207694	38.31	1242.2621853453
4	208251	38.41	1245.1147338537
4	208808	38.51	1247.9553516877
4	209365	38.61	1250.7834874379
4	209922	38.71	1253.5986887563
4	210479	38.81	1256.40058456
4	211036	38.91	1259.1888704319
4	211601	39.01	1261.9632966439
4	212158	39.11	1264.7236583319
4	212715	39.21	1267.4697874361
4	213272	39.31	1270.2015460888
4	213829	39.41	1272.9188221312
4	214386	39.51	1275.6217037373
4	214943	39.61	1278.310866772
4	215500	39.71	1280.9876059877
4	216057	39.81	1283.6537462153
4	216614	39.91	1286.3115494055
4	217179	40.01	1288.963621464
4	217736	40.11	1291.6128196408
3	232	1.11	27.777778619612
3	788	1.21	27.777778599967
3	1344	1.31	27.777778569105
3	1900	1.41	27.777778529595
3	2456	1.51	27.777778483698
3	3012	1.61	27.777778433385
3	3568	1.71	27.777778380352
3	4124	1.81	27.777778326039
3	4680	1.91	27.77777827165
3	5244	2.01	27.777778218173
3	5800	2.11	27.777778166406
3	6356	2.21	27.777778116967
3	6912	2.31	27.777778070327
3	7468	2.41	27.777778026819
3	8024	2.51	27.77777798666
3	8580	2.61	27.77777794997
3	9136	2.71	27.777777916782
3	9692	2.81	27.777777887063
3	10248	2.91	27.777777860724
3	10812	3.01	27.777777837628
3	11368	3.11	27.777777817609
3	11924	3.21	27.777777800471
3	12480	3.31	27.777777786005
3	13036	3.41	27.777777773991
3	13592	3.51	27.777777764203
3	14148	3.61	27.777777756416
3	14704	3.71	27.777777750412
3	15260	3.81	27.777777745977
3	15816	3.91	27.77777774291
3	16380	4.01	27.777777741018
3	16936	4.11	27.777777740126
3	17492	4.21	27.77777774007
3	18048	4.31	27.7777777407
3	18604	4.41	27.777777741882
3	19160	4.51	27.777777743495
3	19716	4.61	27.777777745434
3	20272	4.71	27.777777747604
3	20828	4.81	27.777777749925
3	21384	4.91	27.777777752329
3	21949	5.01	27.777777754758
3	22506	5.11	27.777846021452
3	23063	5.21	27.782059596653
3	23620	5.31	27.795775862036
3	24177	5.41	27.823056285431
3	24734	5.51	27.866721940626
3	25291	5.61	27.928063782047
3	25848	5.71	28.005327711868
3	26405	5.81	28.095658800357
3	26962	5.91	28.196709510244
3	27527	6.01	28.30655404332
3	28084	6.11	28.423612574297
3	28641	6.21	28.54658909619
3	29198	6.31	28.674420431867
3	29755	6.41	28.80623440578
3	30312	6.51	28.941313946553
3	30869	6.61	29.078388981218
3	31426	6.71	29.213351897492
3	31983	6.81	29.341385131305
3	32540	6.91	29.457981732945
3	33105	7.01	29.559024895864
3	33662	7.11	29.640856051762
3	34219	7.21	29.700331349918
3	34776	7.31	29.734866440411
3	35333	7.41	29.742492528104
3	35890	7.51	29.72320356612
3	36447	7.61	29.680432143932
3	37004	7.71	29.618396925437
3	37561	7.81	29.540558684394
3	38118	7.91	29.449756460671
3	38683	8.01	29.348319255796
3	39240	8.11	29.238157662213
3	39797	8.21	29.120839031188
3	40354	8.31	28.997649136664
3	40911	8.41	28.86964276111
3	41468	8.51	28.737685193533
3	42025	8.61	28.602486272297
3	42582	8.71	28.464628312097
3	43139	8.81	28.324589013804
3	43696	8.91	28.182760258515
3	44261	9.01	28.039463525222
3	44818	9.11	27.894962538668
3	45375	9.21	27.749473644999
3	45932	9.31	27.603174323409
3	46489	9.41	27.456210168651
3	47046	9.51	27.308798307138
3	47603	9.61	27.165456941051
3	48160	9.71	27.033088438825
3	48717	9.81	26.917629526736
3	49274	9.91	26.823966096352
3	49839	10.01	26.755942052805
3	50396	10.11	26.716381687291
3	50953	10.21	26.707072901132
3	51510	10.31	26.725876201723
3	52067	10.41	26.768249212414
3	52624	10.51	26.829957594714
3	53181	10.61	26.90752771624
3	53738	10.71	26.998109988574
3	54295	10.81	27.099366756701
3	54852	10.91	27.209380329303
3	55417	11.01	27.326577531569
3	55974	11.11	27.449667812217
3	56531	11.21	27.577592469696
3	57088	11.31	27.709482999991
3	57645	11.41	27.844626927306
3	58202	11.51	27.982439773336
3	58759	11.61	28.122442062297
3	59316	11.71	28.264240457043
3	59873	11.81	28.407512284116
3	60430	11.91	28.5515861915
3	60995	12.01	28.691427297144
3	61552	12.11	28.820647386679
3	62109	12.21	28.933709262078
3	62666	12.31	29.025954034973
3	63223	12.41	29.093614170539
3	63780	12.51	29.133813231597
3	64337	12.61	29.144595455085
3	64894	12.71	29.127327372936
3	65451	12.81	29.086213776084
3	66008	12.91	29.025538551786
3	66573	13.01	28.948815979671
3	67130	13.11	28.858928993054
3	67687	13.21	28.758242601384
3	68244	13.31	28.648696936139
3	68801	13.41	28.531883580877
3	69358	13.51	28.409108188466
3	69915	13.61	28.281441849017
3	70472	13.71	28.14976322948
3	71029	13.81	28.014793142794
3	71586	13.91	27.877122906629
3	72151	14.01	27.737237607429
3	72708	14.11	27.595535185033
3	73265	14.21	27.452342088714
3	73822	14.31	27.307926120577
3	74379	14.41	27.162546024449
3	74936	14.51	27.019330871672
3	75493	14.61	26.884559196285
3	76050	14.71	26.764258967301
3	76607	14.81	26.663521929862
3	77164	14.91	26.586493202078
3	77729	15.01	26.536374688625
3	78286	15.11	26.515419708568
3	78843	15.21	26.523668857685
3	79400	15.31	26.557383788157
3	79957	15.41	26.611989529068
3	80514	15.51	26.683733010807
3	81071	15.61	26.769535409097
3	81628	15.71	26.866871015679
3	82185	15.81	26.973667870074
3	82742	15.91	27.088226243028
3	83307	16.01	27.209151764536
3	83864	16.11	27.335300565535
3	84421	16.21	27.465734274985
3	84978	16.31	27.599683101797
3	85535	16.41	27.736515549161
3	86092	16.51	27.875713569743
3	86649	16.61	28.016852184292
3	87206	16.71	28.159582761803
3	87763	16.81	28.303619303423
3	88320	16.91	28.448676617794
3	88885	17.01	28.590971447913
3	89442	17.11	28.724006207991
3	89999	17.21	28.841930784337
3	90556	17.31	28.939810791426
3	91113	17.41	29.013638834762
3	91670	17.51	29.060332154734
3	92227	17.61	29.077746642843
3	92784	17.71	29.066350790361
3	93341	17.81	29.030054467132
3	93898	17.91	28.973331085061
3	94463	18.01	28.899850399997
3	95020	18.11	28.812622889912
3	95577	18.21	28.714118195293
3	96134	18.31	28.606362281514
3	96691	18.41	28.491017145825
3	97248	18.51	28.369446204845
3	97805	18.61	28.242767935079
3	98362	18.71	28.111899876827
3	98919	18.81	27.977594732713
3	99476	18.91	27.840469981056
3	100041	19.01	27.701032169144
3	100598	19.11	27.559696842186
3	101155	19.21	27.416804891984
3	101712	19.31	27.272635968552
3	102269	19.41	27.127465418657
3	102826	19.51	26.984833896344
3	103383	19.61	26.851159734065
3	103940	19.71	26.732358896103
3	104497	19.81	26.633424036685
3	105054	19.91	26.558413554113
3	105619	20.01	26.510454337265
3	106176	20.11	26.4917309481
3	106733	20.21	26.50196337238
3	107290	20.31	26.53730527926
3	107847	20.41	26.593245707503
3	108404	20.51	26.666084097724
3	108961	20.61	26.752784702327
3	109518	20.71	26.85085715093
3	110075	20.81	26.958258472424
3	110632	20.91	27.073312718935
3	111197	21.01	27.194645029473
3	111754	21.11	27.321127539161
3	112311	21.21	27.451835005966
3	112868	21.31	27.58600840916
3	113425	21.41	27.723025087377
3	113982	21.51	27.862374241425
3	114539	21.61	28.003636838057
3	115096	21.71	28.146469124058
3	115653	21.81	28.290589102065
3	116210	21.91	28.435718002991
3	116775	22.01	28.578225822974
3	117332	22.11	28.711663912643
3	117889	22.21	28.83014072939
3	118446	22.31	28.928685230703
3	119003	22.41	29.003257937223
3	119560	22.51	29.050748330675
3	120117	22.61	29.068986857173
3	120674	22.71	29.058323427182
3	121231	22.81	29.022627945499
3	121788	22.91	28.966397462768
3	122353	23.01	28.89332112684
3	122910	23.11	28.806425323882
3	123467	23.21	28.70819274464
3	124024	23.31	28.600660060247
3	124581	23.41	28.485498050406
3	125138	23.51	28.364077336405
3	125695	23.61	28.237522305085
3	126252	23.71	28.106755345282
3	126809	23.81	27.97253313711
3	127366	23.91	27.835476421811
3	127931	24.01	27.696094423411
3	128488	24.11	27.554804882971
3	129045	24.21	27.411950493662
3	129602	24.31	27.267812383245
3	130159	24.41	27.122668052051
3	130716	24.51	26.980114349492
3	131273	24.61	26.846588675637
3	131830	24.71	26.727991635756
3	132387	24.81	26.629302292308
3	132944	24.91	26.554567145367
3	133509	25.01	26.506902788277
3	134066	25.11	26.488484344384
3	134623	25.21	26.498987841018
3	135180	25.31	26.534552121643
3	135737	25.41	26.590674973809
3	136294	25.51	26.663663015186
3	136851	25.61	26.75048638586
3	137408	25.71	26.8486595454
3	137965	25.81	26.956143484941
3	138522	25.91	27.071265507027
3	139087	26.01	27.192653417141
3	139644	26.11	27.319181537848
3	140201	26.21	27.449926421574
3	140758	26.31	27.584130519676
3	141315	26.41	27.721172378408
3	141872	26.51	27.86054218925
3	142429	26.61	28.001821731647
3	142986	26.71	28.144667919078
3	143543	26.81	28.288799301099
3	144100	26.91	28.433937906563
3	144665	27.01	28.576474582405
3	145222	27.11	28.709967753931
3	145779	27.21	28.828520179047
3	146336	27.31	28.927155771518
3	146893	27.41	29.001830636677
3	147450	27.51	29.049430435655
3	148007	27.61	29.067782111948
3	148564	27.71	29.057219263808
3	149121	27.81	29.021606294275
3	149678	27.91	28.965443500247
3	150243	28.01	28.892422692631
3	150800	28.11	28.805572442229
3	151357	28.21	28.707377231949
3	151914	28.31	28.599875203121
3	152471	28.41	28.48473834152
3	153028	28.51	28.363338257835
3	153585	28.61	28.23680015056
3	154142	28.71	28.106047074368
3	154699	28.81	27.971836255593
3	155256	28.91	27.834788883566
3	155821	29.01	27.695414549904
3	156378	29.11	27.554131297218
3	156935	29.21	27.411282066058
3	157492	29.31	27.267148187119
3	158049	29.41	27.122007456828
3	158606	29.51	26.979464462325
3	159163	29.61	26.84595922909
3	159720	29.71	26.727390247301
3	160277	29.81	26.628734707679
3	160834	29.91	26.554037471766
3	161399	30.01	26.506413715074
3	161956	30.11	26.488037261118
3	162513	30.21	26.498578083731
3	163070	30.31	26.534172984659
3	163627	30.41	26.590320956139
3	164184	30.51	26.663329604102
3	164741	30.61	26.750169879354
3	165298	30.71	26.848356906536
3	165855	30.81	26.955852222374
3	166412	30.91	27.070983576984
3	166977	31.01	27.19237914302
3	167534	31.11	27.318913544249
3	168091	31.21	27.449663580191
3	168648	31.31	27.583871904903
3	169205	31.41	27.720917230929
3	169762	31.51	27.860289886159
3	170319	31.61	28.001571761945
3	170876	31.71	28.144419863567
3	171433	31.81	28.288552815892
3	171990	31.91	28.433692757653
3	172555	32.01	28.576233407281
3	173112	32.11	28.709734164377
3	173669	32.21	28.828297001933
3	174226	32.31	28.926945139104
3	174783	32.41	29.001634073159
3	175340	32.51	29.049248939068
3	175897	32.61	29.067616197954
3	176454	32.71	29.057067201598
3	177011	32.81	29.021465595353
3	177568	32.91	28.965312123179
3	178133	33.01	28.89229896273
3	178690	33.11	28.805454985668
3	179247	33.21	28.707264921712
3	179804	33.31	28.599767114663
3	180361	33.41	28.484633716391
3	180918	33.51	28.363236473841
3	181475	33.61	28.236700697287
3	182032	33.71	28.105949533098
3	182589	33.81	27.971740282831
3	183146	33.91	27.834694197528
3	183711	34.01	27.695320919427
3	184268	34.11	27.554038532669
3	184825	34.21	27.411190011872
3	185382	34.31	27.267056715677
3	185939	34.41	27.12191648129
3	186496	34.51	26.979374961472
3	187053	34.61	26.845872543266
3	187610	34.71	26.727307425566
3	188167	34.81	26.628656541322
3	188724	34.91	26.553964526421
3	189289	35.01	26.506346361114
3	189846	35.11	26.487975689908
3	190403	35.21	26.498521652962
3	190960	35.31	26.534120770842
3	191517	35.41	26.590272201691
3	192074	35.51	26.663283687543
3	192631	35.61	26.750126290851
3	193188	35.71	26.848315227851
3	193745	35.81	26.955812110404
3	194302	35.91	27.070944750266
3	194867	36.01	27.192341370657
3	195424	36.11	27.318876636823
3	195981	36.21	27.449627382316
3	196538	36.31	27.583836289107
3	197095	36.41	27.72088209264
3	197652	36.51	27.860255139592
3	198209	36.61	28.001537336726
3	198766	36.71	28.144385701967
3	199323	36.81	28.28851887055
3	199880	36.91	28.433658996343
3	200445	37.01	28.576200193231
3	201002	37.11	28.709701994993
3	201559	37.21	28.828266266525
3	202116	37.31	28.926916131321
3	202673	37.41	29.00160700291
3	203230	37.51	29.0492239438
3	203787	37.61	29.067593348683
3	204344	37.71	29.057046259961
3	204901	37.81	29.02144621864
3	205458	37.91	28.965294030249
3	206023	38.01	28.892281922949
3	206580	38.11	28.805438809836
3	207137	38.21	28.70724945462
3	207694	38.31	28.599752228983
3	208251	38.41	28.484619307673
3	208808	38.51	28.363222456397
3	209365	38.61	28.236687000824
3	209922	38.71	28.105936099952
3	210479	38.81	27.971727065696
3	211036	38.91	27.834681157597
3	211601	39.01	27.695308024865
3	212158	39.11	27.554025757361
3	212715	39.21	27.411177334393
3	213272	39.31	27.267044118453
3	213829	39.41	27.121903952361
3	214386	39.51	26.979362635632
3	214943	39.61	26.845860605106
3	215500	39.71	26.727296019558
3	216057	39.81	26.628645776441
3	216614	39.91	26.553954480566
3	217179	40.01	26.506337085291
3	217736	40.11	26.487967210471
1	232	1.11	0
1	788	1.21	0
1	1344	1.31	0
1	1900	1.41	0
1	2456	1.51	0
1	3012	1.61	0
1	3568	1.71	0
1	4124	1.81	0
1	4680	1.91	0
1	5244	2.01	0
1	5800	2.11	0
1	6356	2.21	0
1	6912	2.31	0
1	7468	2.41	0
1	8024	2.51	0
1	8580	2.61	0
1	9136	2.71	0
1	9692	2.81	0
1	10248	2.91	0
1	10812	3.01	0
1	11368	3.11	0
1	11924	3.21	0
1	12480	3.31	0
1	13036	3.41	0
1	13592	3.51	0
1	14148	3.61	0
1	14704	3.71	0
1	15260	3.81	0
1	15816	3.91	0
1	16380	4.01	0
1	16936	4.11	0
1	17492	4.21	0
1	18048	4.31	0
1	18604	4.41	0
1	19160	4.51	0
1	19716	4.61	0
1	20272	4.71	0
1	20828	4.81	0
1	21384	4.91	0
1	21949	5.01	0
1	22506	5.11	0
1	23063	5.21	0
1	23620	5.31	0
1	24177	5.41	0
1	24734	5.51	0
1	25291	5.61	0
1	25848	5.71	0
1	26405	5.81	0
1	26962	5.91	0
1	27527	6.01	0
1	28084	6.11	0
1	28641	6.21	0
1	29198	6.31	0
1	29755	6.41	0
1	30312	6.51	0
1	30869	6.61	0
1	31426	6.71	0
1	31983	6.81	0
1	32540	6.91	0
1	33105	7.01	0
1	33662	7.11	0
1	34219	7.21	0
1	34776	7.31	0
1	35333	7.41	0
1	35890	7.51	0
1	36447	7.61	0
1	37004	7.71	0
1	37561	7.81	0
1	38118	7.91	0
1	38683	8.01	0
1	39240	8.11	0
1	39797	8.21	0
1	40354	8.31	0
1	40911	8.41	0
1	41468	8.51	0
1	42025	8.61	0
1	42582	8.71	0
1	43139	8.81	0
1	43696	8.91	0
1	44261	9.01	0
1	44818	9.11	0
1	45375	9.21	0
1	45932	9.31	0
1	46489	9.41	0
1	47046	9.51	0
1	47603	9.61	0
1	48160	9.71	0
1	48717	9.81	0
1	49274	9.91	0
1	49839	10.01	0
1	50396	10.11	0
1	50953	10.21	0
1	51510	10.31	0
1	52067	10.41	0
1	52624	10.51	0
1	53181	10.61	0
1	53738	10.71	0
1	54295	10.81	0
1	54852	10.91	0
1	55417	11.01	0
1	55974	11.11	0
1	56531	11.21	0
1	57088	11.31	0
1	57645	11.41	0
1	58202	11.51	0
1	58759	11.61	0
1	59316	11.71	0
1	59873	11.81	0
1	60430	11.91	0
1	60995	12.01	0
1	61552	12.11	0
1	62109	12.21	0
1	62666	12.31	0
1	63223	12.41	0
1	63780	12.51	0
1	64337	12.61	0
1	64894	12.71	0
1	65451	12.81	0
1	66008	12.91	0
1	66573	13.01	0
1	67130	13.11	0
1	67687	13.21	0
1	68244	13.31	0
1	68801	13.41	0
1	69358	13.51	0
1	69915	13.61	0
1	70472	13.71	0
1	71029	13.81	0
1	71586	13.91	0
1	72151	14.01	0
1	72708	14.11	0
1	73265	14.21	0
1	73822	14.31	0
1	74379	14.41	0
1	74936	14.51	0
1	75493	14.61	0
1	76050	14.71	0
1	76607	14.81	0
1	77164	14.91	0
1	77729	15.01	0
1	78286	15.11	0
1	78843	15.21	0
1	79400	15.31	0
1	79957	15.41	0
1	80514	15.51	0
1	81071	15.61	0
1	81628	15.71	0
1	82185	15.81	0
1	82742	15.91	0
1	83307	16.01	0
1	83864	16.11	0
1	84421	16.21	0
1	84978	16.31	0
1	85535	16.41	0
1	86092	16.51	0
1	86649	16.61	0
1	87206	16.71	0
1	87763	16.81	0
1	88320	16.91	0
1	88885	17.01	0
1	89442	17.11	0
1	89999	17.21	0
1	90556	17.31	0
1	91113	17.41	0
1	91670	17.51	0
1	92227	17.61	0
1	92784	17.71	0
1	93341	17.81	0
1	93898	17.91	0
1	94463	18.01	0
1	95020	18.11	0
1	95577	18.21	0
1	96134	18.31	0
1	96691	18.41	0
1	97248	18.51	0
1	97805	18.61	0
1	98362	18.71	0
1	98919	18.81	0
1	99476	18.91	0
1	100041	19.01	0
1	100598	19.11	0
1	101155	19.21	0
1	101712	19.31	0
1	102269	19.41	0
1	102826	19.51	0
1	103383	19.61	0
1	103940	19.71	0
1	104497	19.81	0
1	105054	19.91	0
1	105619	20.01	0
1	106176	20.11	0
1	106733	20.21	0
1	107290	20.31	0
1	107847	20.41	0
1	108404	20.51	0
1	108961	20.61	0
1	109518	20.71	0
1	110075	20.81	0
1	110632	20.91	0
1	111197	21.01	0
1	111754	21.11	0
1	112311	21.21	0
1	112868	21.31	0
1	113425	21.41	0
1	113982	21.51	0
1	114539	21.61	0
1	115096	21.71	0
1	115653	21.81	0
1	116210	21.91	0
1	116775	22.01	0
1	117332	22.11	0
1	117889	22.21	0
1	118446	22.31	0
1	119003	22.41	0
1	119560	22.51	0
1	120117	22.61	0
1	120674	22.71	0
1	121231	22.81	0
1	121788	22.91	0
1	122353	23.01	0
1	122910	23.11	0
1	123467	23.21	0
1	124024	23.31	0
1	124581	23.41	0
1	125138	23.51	0
1	125695	23.61	0
1	126252	23.71	0
1	126809	23.81	0
1	127366	23.91	0
1	127931	24.01	0
1	128488	24.11	0
1	129045	24.21	0
1	129602	24.31	0
1	130159	24.41	0
1	130716	24.51	0
1	131273	24.61	0
1	131830	24.71	0
1	132387	24.81	0
1	132944	24.91	0
1	133509	25.01	0
1	134066	25.11	0
1	134623	25.21	0
1	135180	25.31	0
1	135737	25.41	0
1	136294	25.51	0
1	136851	25.61	0
1	137408	25.71	0
1	137965	25.81	0
1	138522	25.91	0
1	139087	26.01	0
1	139644	26.11	0
1	140201	26.21	0
1	140758	26.31	0
1	141315	26.41	0
1	141872	26.51	0
1	142429	26.61	0
1	142986	26.71	0
1	143543	26.81	0
1	144100	26.91	0
1	144665	27.01	0
1	145222	27.11	0
1	145779	27.21	0
1	146336	27.31	0
1	146893	27.41	0
1	147450	27.51	0
1	148007	27.61	0
1	148564	27.71	0
1	149121	27.81	0
1	149678	27.91	0
1	150243	28.01	0
1	150800	28.11	0
1	151357	28.21	0
1	151914	28.31	0
1	152471	28.41	0
1	153028	28.51	0
1	153585	28.61	0
1	154142	28.71	0
1	154699	28.81	0
1	155256	28.91	0
1	155821	29.01	0
1	156378	29.11	0
1	156935	29.21	0
1	157492	29.31	0
1	158049	29.41	0
1	158606	29.51	0
1	159163	29.61	0
1	159720	29.71	0
1	160277	29.81	0
1	160834	29.91	0
1	161399	30.01	0
1	161956	30.11	0
1	162513	30.21	0
1	163070	30.31	0
1	163627	30.41	0
1	164184	30.51	0
1	164741	30.61	0
1	165298	30.71	0
1	165855	30.81	0
1	166412	30.91	0
1	166977	31.01	0
1	167534	31.11	0
1	168091	31.21	0
1	168648	31.31	0
1	169205	31.41	0
1	169762	31.51	0
1	170319	31.61	0
1	170876	31.71	0
1	171433	31.81	0
1	171990	31.91	0
1	172555	32.01	0
1	173112	32.11	0
1	173669	32.21	0
1	174226	32.31	0
1	174783	32.41	0
1	175340	32.51	0
1	175897	32.61	0
1	176454	32.71	0
1	177011	32.81	0
1	177568	32.91	0
1	178133	33.01	0
1	178690	33.11	0
1	179247	33.21	0
1	179804	33.31	0
1	180361	33.41	0
1	180918	33.51	0
1	181475	33.61	0
1	182032	33.71	0
1	182589	33.81	0
1	183146	33.91	0
1	183711	34.01	0
1	184268	34.11	0
1	184825	34.21	0
1	185382	34.31	0
1	185939	34.41	0
1	186496	34.51	0
1	187053	34.61	0
1	187610	34.71	0
1	188167	34.81	0
1	188724	34.91	0
1	189289	35.01	0
1	189846	35.11	0
1	190403	35.21	0
1	190960	35.31	0
1	191517	35.41	0
1	192074	35.51	0
1	192631	35.61	0
1	193188	35.71	0
1	193745	35.81	0
1	194302	35.91	0
1	194867	36.01	0
1	195424	36.11	0
1	195981	36.21	0
1	196538	36.31	0
1	197095	36.41	0
1	197652	36.51	0
1	198209	36.61	0
1	198766	36.71	0
1	199323	36.81	0
1	199880	36.91	0
1	200445	37.01	0
1	201002	37.11	0
1	201559	37.21	0
1	202116	37.31	0
1	202673	37.41	0
1	203230	37.51	0
1	203787	37.61	0
1	204344	37.71	0
1	204901	37.81	0
1	205458	37.91	0
1	206023	38.01	0
1	206580	38.11	0
1	207137	38.21	0
1	207694	38.31	0
1	208251	38.41	0
1	208808	38.51	0
1	209365	38.61	0
1	209922	38.71	0
1	210479	38.81	0
1	211036	38.91	0
1	211601	39.01	0
1	212158	39.11	0
1	212715	39.21	0
1	213272	39.31	0
1	213829	39.41	0
1	214386	39.51	0
1	214943	39.61	0
1	215500	39.71	0
1	216057	39.81	0
1	216614	39.91	0
1	217179	40.01	0
1	217736	40.11	0
0	232	1.11	-1
0	788	1.21	-1
0	1344	1.31	-1
0	1900	1.41	-1
0	2456	1.51	-1
0	3012	1.61	-1
0	3568	1.71	-1
0	4124	1.81	-1
0	4680	1.91	-1
0	5244	2.01	-1
0	5800	2.11	-1
0	6356	2.21	-1
0	6912	2.31	-1
0	7468	2.41	-1
0	8024	2.51	-1
0	8580	2.61	-1
0	9136	2.71	-1
0	9692	2.81	-1
0	10248	2.91	-1
0	10812	3.01	-1
0	11368	3.11	-1
0	11924	3.21	-1
0	12480	3.31	-1
0	13036	3.41	-1
0	13592	3.51	-1
0	14148	3.61	-1
0	14704	3.71	-1
0	15260	3.81	-1
0	15816	3.91	-1
0	16380	4.01	-1
0	16936	4.11	-1
0	17492	4.21	-1
0	18048	4.31	-1
0	18604	4.41	-1
0	19160	4.51	-1
0	19716	4.61	-1
0	20272	4.71	-1
0	20828	4.81	-1
0	21384	4.91	-1
0	21949	5.01	-1
0	22506	5.11	-1
0	23063	5.21	-1
0	23620	5.31	-1
0	24177	5.41	-1
0	24734	5.51	-1
0	25291	5.61	-1
0	25848	5.71	-1
0	26405	5.81	-1
0	26962	5.91	-1
0	27527	6.01	-1
0	28084	6.11	-1
0	28641	6.21	-1
0	29198	6.31	-1
0	29755	6.41	-1
0	30312	6.51	-1
0	30869	6.61	-1
0	31426	6.71	-1
0	31983	6.81	-1
0	32540	6.91	-1
0	33105	7.01	-1
0	33662	7.11	-1
0	34219	7.21	-1
0	34776	7.31	-1
0	35333	7.41	-1
0	35890	7.51	-1
0	36447	7.61	-1
0	37004	7.71	-1
0	37561	7.81	-1
0	38118	7.91	-1
0	38683	8.01	-1
0	39240	8.11	-1
0	39797	8.21	-1
0	40354	8.31	-1
0	40911	8.41	-1
0	41468	8.51	-1
0	42025	8.61	-1
0	42582	8.71	-1
0	43139	8.81	-1
0	43696	8.91	-1
0	44261	9.01	-1
0	44818	9.11	-1
0	45375	9.21	-1
0	45932	9.31	-1
0	46489	9.41	-1
0	47046	9.51	-1
0	47603	9.61	-1
0	48160	9.71	-1
0	48717	9.81	-1
0	49274	9.91	-1
0	49839	10.01	-1
0	50396	10.11	-1
0	50953	10.21	-1
0	51510	10.31	-1
0	52067	10.41	-1
0	52624	10.51	-1
0	53181	10.61	-1
0	53738	10.71	-1
0	54295	10.81	-1
0	54852	10.91	-1
0	55417	11.01	-1
0	55974	11.11	-1
0	56531	11.21	-1
0	57088	11.31	-1
0	57645	11.41	-1
0	58202	11.51	-1
0	58759	11.61	-1
0	59316	11.71	-1
0	59873	11.81	-1
0	60430	11.91	-1
0	60995	12.01	-1
0	61552	12.11	-1
0	62109	12.21	-1
0	62666	12.31	-1
0	63223	12.41	-1
0	63780	12.51	-1
0	64337	12.61	-1
0	64894	12.71	-1
0	65451	12.81	-1
0	66008	12.91	-1
0	66573	13.01	-1
0	67130	13.11	-1
0	67687	13.21	-1
0	68244	13.31	-1
0	68801	13.41	-1
0	69358	13.51	-1
0	69915	13.61	-1
0	70472	13.71	-1
0	71029	13.81	-1
0	71586	13.91	-1
0	72151	14.01	-1
0	72708	14.11	-1
0	73265	14.21	-1
0	73822	14.31	-1
0	74379	14.41	-1
0	74936	14.51	-1
0	75493	14.61	-1
0	76050	14.71	-1
0	76607	14.81	-1
0	77164	14.91	-1
0	77729	15.01	-1
0	78286	15.11	-1
0	78843	15.21	-1
0	79400	15.31	-1
0	79957	15.41	-1
0	80514	15.51	-1
0	81071	15.61	-1
0	81628	15.71	-1
0	82185	15.81	-1
0	82742	15.91	-1
0	83307	16.01	-1
0	83864	16.11	-1
0	84421	16.21	-1
0	84978	16.31	-1
0	85535	16.41	-1
0	86092	16.51	-1
0	86649	16.61	-1
0	87206	16.71	-1
0	87763	16.81	-1
0	88320	16.91	-1
0	88885	17.01	-1
0	89442	17.11	-1
0	89999	17.21	-1
0	90556	17.31	-1
0	91113	17.41	-1
0	91670	17.51	-1
0	92227	17.61	-1
0	92784	17.71	-1
0	93341	17.81	-1
0	93898	17.91	-1
0	94463	18.01	-1
0	95020	18.11	-1
0	95577	18.21	-1
0	96134	18.31	-1
0	96691	18.41	-1
0	97248	18.51	-1
0	97805	18.61	-1
0	98362	18.71	-1
0	98919	18.81	-1
0	99476	18.91	-1
0	100041	19.01	-1
0	100598	19.11	-1
0	101155	19.21	-1
0	101712	19.31	-1
0	102269	19.41	-1
0	102826	19.51	-1
0	103383	19.61	-1
0	103940	19.71	-1
0	104497	19.81	-1
0	105054	19.91	-1
0	105619	20.01	-1
0	106176	20.11	-1
0	106733	20.21	-1
0	107290	20.31	-1
0	107847	20.41	-1
0	108404	20.51	-1
0	108961	20.61	-1
0	109518	20.71	-1
0	110075	20.81	-1
0	110632	20.91	-1
0	111197	21.01	-1
0	111754	21.11	-1
0	112311	21.21	-1
0	112868	21.31	-1
0	113425	21.41	-1
0	113982	21.51	-1
0	114539	21.61	-1
0	115096	21.71	-1
0	115653	21.81	-1
0	116210	21.91	-1
0	116775	22.01	-1
0	117332	22.11	-1
0	117889	22.21	-1
0	118446	22.31	-1
0	119003	22.41	-1
0	119560	22.51	-1
0	120117	22.61	-1
0	120674	22.71	-1
0	121231	22.81	-1
0	121788	22.91	-1
0	122353	23.01	-1
0	122910	23.11	-1
0	123467	23.21	-1
0	124024	23.31	-1
0	124581	23.41	-1
0	125138	23.51	-1
0	125695	23.61	-1
0	126252	23.71	-1
0	126809	23.81	-1
0	127366	23.91	-1
0	127931	24.01	-1
0	128488	24.11	-1
0	129045	24.21	-1
0	129602	24.31	-1
0	130159	24.41	-1
0	130716	24.51	-1
0	131273	24.61	-1
0	131830	24.71	-1
0	132387	24.81	-1
0	132944	24.91	-1
0	133509	25.01	-1
0	134066	25.11	-1
0	134623	25.21	-1
0	135180	25.31	-1
0	135737	25.41	-1
0	136294	25.51	-1
0	136851	25.61	-1
0	137408	25.71	-1
0	137965	25.81	-1
0	138522	25.91	-1
0	139087	26.01	-1
0	139644	26.11	-1
0	140201	26.21	-1
0	140758	26.31	-1
0	141315	26.41	-1
0	141872	26.51	-1
0	142429	26.61	-1
0	142986	26.71	-1
0	143543	26.81	-1
0	144100	26.91	-1
0	144665	27.01	-1
0	145222	27.11	-1
0	145779	27.21	-1
0	146336	27.31	-1
0	146893	27.41	-1
0	147450	27.51	-1
0	148007	27.61	-1
0	148564	27.71	-1
0	149121	27.81	-1
0	149678	27.91	-1
0	150243	28.01	-1
0	150800	28.11	-1
0	151357	28.21	-1
0	151914	28.31	-1
0	152471	28.41	-1
0	153028	28.51	-1
0	153585	28.61	-1
0	154142	28.71	-1
0	154699	28.81	-1
0	155256	28.91	-1
0	155821	29.01	-1
0	156378	29.11	-1
0	156935	29.21	-1
0	157492	29.31	-1
0	158049	29.41	-1
0	158606	29.51	-1
0	159163	29.61	-1
0	159720	29.71	-1
0	160277	29.81	-1
0	160834	29.91	-1
0	161399	30.01	-1
0	161956	30.11	-1
0	162513	30.21	-1
0	163070	30.31	-1
0	163627	30.41	-1
0	164184	30.51	-1
0	164741	30.61	-1
0	165298	30.71	-1
0	165855	30.81	-1
0	166412	30.91	-1
0	166977	31.01	-1
0	167534	31.11	-1
0	168091	31.21	-1
0	168648	31.31	-1
0	169205	31.41	-1
0	169762	31.51	-1
0	170319	31.61	-1
0	170876	31.71	-1
0	171433	31.81	-1
0	171990	31.91	-1
0	172555	32.01	-1
0	173112	32.11	-1
0	173669	32.21	-1
0	174226	32.31	-1
0	174783	32.41	-1
0	175340	32.51	-1
0	175897	32.61	-1
0	176454	32.71	-1
0	177011	32.81	-1
0	177568	32.91	-1
0	178133	33.01	-1
0	178690	33.11	-1
0	179247	33.21	-1
0	179804	33.31	-1
0	180361	33.41	-1
0	180918	33.51	-1
0	181475	33.61	-1
0	182032	33.71	-1
0	182589	33.81	-1
0	183146	33.91	-1
0	183711	34.01	-1
0	184268	34.11	-1
0	184825	34.21	-1
0	185382	34.31	-1
0	185939	34.41	-1
0	186496	34.51	-1
0	187053	34.61	-1
0	187610	34.71	-1
0	188167	34.81	-1
0	188724	34.91	-1
0	189289	35.01	-1
0	189846	35.11	-1
0	190403	35.21	-1
0	190960	35.31	-1
0	191517	35.41	-1
0	192074	35.51	-1
0	192631	35.61	-1
0	193188	35.71	-1
0	193745	35.81	-1
0	194302	35.91	-1
0	194867	36.01	-1
0	195424	36.11	-1
0	195981	36.21	-1
0	196538	36.31	-1
0	197095	36.41	-1
0	197652	36.51	-1
0	198209	36.61	-1
0	198766	36.71	-1
0	199323	36.81	-1
0	199880	36.91	-1
0	200445	37.01	-1
0	201002	37.11	-1
0	201559	37.21	-1
0	202116	37.31	-1
0	202673	37.41	-1
0	203230	37.51	-1
0	203787	37.61	-1
0	204344	37.71	-1
0	204901	37.81	-1
0	205458	37.91	-1
0	206023	38.01	-1
0	206580	38.11	-1
0	207137	38.21	-1
0	207694	38.31	-1
0	208251	38.41	-1
0	208808	38.51	-1
0	209365	38.61	-1
0	209922	38.71	-1
0	210479	38.81	-1
0	211036	38.91	-1
0	211601	39.01	-1
0	212158	39.11	-1
0	212715	39.21	-1
0	213272	39.31	-1
0	213829	39.41	-1
0	214386	39.51	-1
0	214943	39.61	-1
0	215500	39.71	-1
0	216057	39.81	-1
0	216614	39.91	-1
0	217179	40.01	-1
0	217736	40.11	-1
2	232	1.11	0
2	788	1.21	0
2	1344	1.31	0
2	1900	1.41	0
2	2456	1.51	0
2	3012	1.61	0
2	3568	1.71	0
2	4124	1.81	0
2	4680	1.91	0
2	5244	2.01	0
2	5800	2.11	0
2	6356	2.21	0
2	6912	2.31	0
2	7468	2.41	0
2	8024	2.51	0
2	8580	2.61	0
2	9136	2.71	0
2	9692	2.81	0
2	10248	2.91	0
2	10812	3.01	0
2	11368	3.11	0
2	11924	3.21	0
2	12480	3.31	0
2	13036	3.41	0
2	13592	3.51	0
2	14148	3.61	0
2	14704	3.71	0
2	15260	3.81	0
2	15816	3.91	0
2	16380	4.01	0
2	16936	4.11	0
2	17492	4.21	0
2	18048	4.31	0
2	18604	4.41	0
2	19160	4.51	0
2	19716	4.61	0
2	20272	4.71	0
2	20828	4.81	0
2	21384	4.91	0
2	21949	5.01	0
2	22506	5.11	0
2	23063	5.21	0
2	23620	5.31	0
2	24177	5.41	0
2	24734	5.51	0
2	25291	5.61	0
2	25848	5.71	0
2	26405	5.81	0
2	26962	5.91	0
2	27527	6.01	0
2	28084	6.11	0
2	28641	6.21	0
2	29198	6.31	0
2	29755	6.41	0
2	30312	6.51	0
2	30869	6.61	0
2	31426	6.71	0
2	31983	6.81	0
2	32540	6.91	0
2	33105	7.01	0
2	33662	7.11	0
2	34219	7.21	0
2	34776	7.31	0
2	35333	7.41	0
2	35890	7.51	0
2	36447	7.61	0
2	37004	7.71	0
2	37561	7.81	0
2	38118	7.91	0
2	38683	8.01	0
2	39240	8.11	0
2	39797	8.21	0
2	40354	8.31	0
2	40911	8.41	0
2	41468	8.51	0
2	42025	8.61	0
2	42582	8.71	0
2	43139	8.81	0
2	43696	8.91	0
2	44261	9.01	0
2	44818	9.11	0
2	45375	9.21	0
2	45932	9.31	0
2	46489	9.41	0
2	47046	9.51	0
2	47603	9.61	0
2	48160	9.71	0
2	48717	9.81	0
2	49274	9.91	0
2	49839	10.01	0
2	50396	10.11	0
2	50953	10.21	0
2	51510	10.31	0
2	52067	10.41	0
2	52624	10.51	0
2	53181	10.61	0
2	53738	10.71	0
2	54295	10.81	0
2	54852	10.91	0
2	55417	11.01	0
2	55974	11.11	0
2	56531	11.21	0
2	57088	11.31	0
2	57645	11.41	0
2	58202	11.51	0
2	58759	11.61	0
2	59316	11.71	0
2	59873	11.81	0
2	60430	11.91	0
2	60995	12.01	0
2	61552	12.11	0
2	62109	12.21	0
2	62666	12.31	0
2	63223	12.41	0
2	63780	12.51	0
2	64337	12.61	0
2	64894	12.71	0
2	65451	12.81	0
2	66008	12.91	0
2	66573	13.01	0
2	67130	13.11	0
2	67687	13.21	0
2	68244	13.31	0
2	68801	13.41	0
2	69358	13.51	0
2	69915	13.61	0
2	70472	13.71	0
2	71029	13.81	0
2	71586	13.91	0
2	72151	14.01	0
2	72708	14.11	0
2	73265	14.21	0
2	73822	14.31	0
2	74379	14.41	0
2	74936	14.51	0
2	75493	14.61	0
2	76050	14.71	0
2	76607	14.81	0
2	77164	14.91	0
2	77729	15.01	0
2	78286	15.11	0
2	78843	15.21	0
2	79400	15.31	0
2	79957	15.41	0
2	80514	15.51	0
2	81071	15.61	0
2	81628	15.71	0
2	82185	15.81	0
2	82742	15.91	0
2	83307	16.01	0
2	83864	16.11	0
2	84421	16.21	0
2	84978	16.31	0
2	85535	16.41	0
2	86092	16.51	0
2	86649	16.61	0
2	87206	16.71	0
2	87763	16.81	0
2	88320	16.91	0
2	88885	17.01	0
2	89442	17.11	0
2	89999	17.21	0
2	90556	17.31	0
2	91113	17.41	0
2	91670	17.51	0
2	92227	17.61	0
[...]
35	157179	29.254928969945	0.100091241161
35	157736	29.354877210966	0.099948241021
35	158293	29.454903451837	0.100026240871
35	158850	29.554890692561	0.099987240724
35	159407	29.654890933138	0.100000240577
35	159964	29.754904173576	0.100013240438
35	160521	29.854891413886	0.09998724031
35	161078	29.954839654088	0.099948240202
35	161643	30.054878894203	0.100039240115
35	162200	30.154905134257	0.100026240054
35	162757	30.254827374275	0.099922240018
35	163314	30.354827614283	0.100000240008
35	163871	30.454905854306	0.100078240023
35	164428	30.554880094363	0.099974240057
35	164985	30.654893334471	0.100013240108
35	165542	30.754880574645	0.099987240174
35	166099	30.854841814899	0.099961240254
35	166656	30.95484205524	0.100000240341
35	167221	31.05489429568	0.10005224044
35	167778	31.154881536225	0.099987240545
35	168335	31.254829776881	0.099948240656
35	168892	31.354869017656	0.100039240775
35	169449	31.454856258556	0.0999872409
35	170006	31.554882499586	0.10002624103
35	170563	31.654882740749	0.100000241163
35	171120	31.754843982051	0.099961241302
35	171677	31.854844223496	0.100000241445
35	172234	31.954870465089	0.100026241593
35	172799	32.05488370683	0.100013241741
35	173356	32.154922948718	0.100039241888
35	173913	32.254884190742	0.099961242024
35	174470	32.354858432879	0.099974242137
35	175027	32.454910675092	0.100052242213
35	175584	32.554884917325	0.099974242233
35	176141	32.65485915951	0.099974242185
35	176698	32.754833401556	0.099974242046
35	177255	32.854872643357	0.100039241801
35	177812	32.954898884795	0.100026241438
35	178377	33.054834125743	0.099935240948
35	178934	33.154847366063	0.10001324032
35	179491	33.254873605609	0.100026239546
35	180048	33.35492584423	0.100052238621
35	180605	33.454887081768	0.099961237538
35	181162	33.554835318065	0.099948236297
35	181719	33.65486155296	0.100026234895
35	182276	33.754900786282	0.100039233322
35	182833	33.854914017866	0.100013231584
35	183390	33.95492724754	0.100013229674
35	183955	34.054927475132	0.100000227592
35	184512	34.154901700467	0.099974225335
35	185069	34.254875923375	0.099974222908
35	185626	34.354902143677	0.100026220302
35	186183	34.454876361196	0.099974217519
35	186740	34.554915575759	0.100039214563
35	187297	34.654837787199	0.09992221144
35	187854	34.754837995358	0.100000208159
35	188411	34.854851200089	0.100013204731
35	188968	34.954916401267	0.100065201178
35	189533	35.054890598775	0.099974197508
35	190090	35.154877792528	0.099987193753
35	190647	35.25483898245	0.099961189922
35	191204	35.354852168487	0.100013186037
35	191761	35.454878350596	0.100026182109
35	192318	35.554917528746	0.10003917815
35	192875	35.654826702914	0.099909174168
35	193432	35.754904873087	0.100078170173
35	193989	35.854840039257	0.09993516617
35	194546	35.95486620142	0.100026162163
35	195111	36.054827359577	0.099961158157
35	195668	36.154892513734	0.100065154157
35	196225	36.254892663901	0.100000150167
35	196782	36.354827810084	0.099935146183
35	197339	36.454879952302	0.100052142218
35	197896	36.554880090567	0.100000138265
35	198453	36.654906224897	0.10002613433
35	199010	36.754906355311	0.100000130414
35	199567	36.85486748183	0.099961126519
35	200124	36.954919604477	0.100052122647
35	200689	37.05485472327	0.099935118793
35	201246	37.154919838227	0.100065114957
35	201803	37.254867949351	0.099948111124
35	202360	37.354894056637	0.100026107286
35	202917	37.454855160066	0.099961103429
35	203474	37.554855259599	0.100000099533
35	204031	37.65486835518	0.100013095581
35	204588	37.754920446734	0.100052091554
35	205145	37.854907534171	0.099987087437
35	205702	37.954907617394	0.100000083223
35	206267	38.054881696286	0.099974078892
35	206824	38.154868770729	0.099987074443
35	207381	38.254829840603	0.099961069874
35	207938	38.354842905774	0.100013065171
35	208495	38.454842966109	0.100000060335
35	209052	38.554843021469	0.10000005536
35	209609	38.654830071718	0.099987050249
35	210166	38.754869116716	0.100039044998
35	210723	38.854830156322	0.099961039606
35	211280	38.954830190394	0.100000034072
35	211845	39.054882218789	0.100052028395
35	212402	39.154843241369	0.09996102258
35	212959	39.254908257989	0.10006501662
35	213516	39.354869268506	0.099961010517
35	214073	39.454856272779	0.099987004273
35	214630	39.554882270673	0.100025997894
35	215187	39.654856262056	0.099973991383
35	215744	39.754869246807	0.100012984751
35	216301	39.854830224822	0.099960978015
35	216858	39.954882196011	0.100051971189
35	217423	40.054882160304	0.099999964293
36	1032	1.254913282269	0.10001324155
36	1588	1.354887523819	0.09997424155
36	2144	1.454874765369	0.09998724155
36	2700	1.554888006919	0.10001324155
36	3256	1.654875248469	0.09998724155
36	3812	1.754862490019	0.09998724155
36	4368	1.854927731569	0.10006524155
36	4924	1.954888973119	0.09996124155
36	5488	2.054928214669	0.10003924155
36	6044	2.154837456219	0.09990924155
36	6600	2.254902697769	0.10006524155
36	7156	2.354928939319	0.10002624155
36	7712	2.454864180869	0.09993524155
36	8268	2.554838422419	0.09997424155
36	8824	2.654903663969	0.10006524155
36	9380	2.754890905519	0.09998724155
36	9936	2.854930147069	0.10003924155
36	10492	2.954878388619	0.09994824155
36	11056	3.054852630169	0.09997424155
36	11612	3.154891871719	0.10003924155
36	12168	3.254853113269	0.09996124155
36	12724	3.354853354819	0.10000024155
36	13280	3.454918596369	0.10006524155
36	13836	3.554866837919	0.09994824155
36	14392	3.654841079469	0.09997424155
36	14948	3.754828321019	0.09998724155
36	15504	3.854828562569	0.10000024155
36	16060	3.954880804119	0.10005224155
36	16624	4.054855045669	0.09997424155
36	17180	4.154855287219	0.10000024155
36	17736	4.254920528769	0.10006524155
36	18292	4.354907770319	0.09998724155
36	18848	4.454843011869	0.09993524155
36	19404	4.554882253419	0.10003924155
36	19960	4.654856494969	0.09997424155
36	20516	4.754882736519	0.10002624155
36	21072	4.854921978069	0.10003924155
36	21628	4.954844219619	0.09992224155
36	22193	5.054831461169	0.09998724155
36	22750	5.15489670272	0.100065241551
36	23307	5.254870944273	0.099974241553
36	23864	5.354858185835	0.099987241562
36	24421	5.454884427417	0.100026241582
36	24978	5.554897669035	0.100013241618
36	25535	5.654858910702	0.099961241667
36	26092	5.754872152437	0.100013241735
36	26649	5.854872394257	0.10000024182
36	27206	5.954846636175	0.099974241918
36	27771	6.054846878204	0.100000242029
36	28328	6.154899120353	0.100052242149
36	28885	6.254925362632	0.100026242279
36	29442	6.35487360505	0.099948242418
36	29999	6.454834847611	0.099961242561
36	30556	6.554913090322	0.100078242711
36	31113	6.654913333189	0.100000242867
36	31670	6.754848576212	0.099935243023
36	32227	6.854900819391	0.100052243179
36	32784	6.95488806272	0.099987243329
36	33349	7.054849306192	0.099961243472
36	33906	7.154901549791	0.100052243599
36	34463	7.2549017935	0.100000243709
36	35020	7.354863037297	0.099961243797
36	35577	7.454902281158	0.100039243861
36	36134	7.554928525059	0.100026243901
36	36691	7.654902768975	0.099974243916
36	37248	7.754903012883	0.100000243908
36	37805	7.854929256765	0.100026243882
36	38362	7.954877500604	0.099948243839
36	38927	8.054838744384	0.09996124378
36	39484	8.154864988099	0.100026243715
36	40041	8.254865231735	0.100000243636
36	40598	8.354878475281	0.100013243546
36	41155	8.454878718732	0.100000243451
36	41712	8.55490496208	0.100026243348
36	42269	8.654827205319	0.099922243239
36	42826	8.754853448442	0.100026243123
36	43383	8.854827691443	0.099974243001
36	43940	8.954892934318	0.100065242875
36	44505	9.054919177059	0.100026242741
36	45062	9.154906419664	0.099987242605
36	45619	9.254828662126	0.099922242462
36	46176	9.354828904441	0.100000242315
36	46733	9.454855146604	0.100026242163
36	47290	9.554881388611	0.100026242007
36	47847	9.654842630462	0.099961241851
36	48404	9.754868872158	0.100026241696
36	48961	9.854843113706	0.099974241548
36	49518	9.954869355124	0.100026241418
36	50083	10.054921596427	0.100052241303
36	50640	10.154830837642	0.099909241215
36	51197	10.254922078794	0.100091241152
36	51754	10.35488331991	0.099961241116
36	52311	10.454857561015	0.099974241105
36	52868	10.554909802132	0.100052241117
36	53425	10.65487104328	0.099961241148
36	53982	10.754923284474	0.100052241194
36	54539	10.854910525727	0.099987241253
36	55096	10.954832767051	0.099922241324
36	55661	11.054872008459	0.100039241408
36	56218	11.154846249958	0.099974241499
36	56775	11.254859491554	0.100013241596
36	57332	11.354872733255	0.100013241701
36	57889	11.454859975068	0.099987241813
36	58446	11.554834216998	0.09997424193
36	59003	11.65492545905	0.100091242052
36	59560	11.754925701231	0.100000242181
36	60117	11.854925943544	0.100000242313
36	60674	11.954861185993	0.099935242449
36	61239	12.054835428582	0.099974242589
36	61796	12.154926671304	0.100091242722
36	62353	12.254848914153	0.099922242849
36	62910	12.354862157113	0.10001324296
36	63467	12.454875400167	0.100013243054
36	64024	12.554875643292	0.100000243125
36	64581	12.654875886461	0.100000243169
36	65138	12.75483712965	0.099961243189
36	65695	12.854837372834	0.100000243184
36	66252	12.954863615987	0.100026243153
36	66817	13.054915859094	0.100052243107
36	67374	13.154838102138	0.099922243044
36	67931	13.254851345104	0.100013242966
36	68488	13.354838587982	0.099987242878
36	69045	13.454838830761	0.100000242779
36	69602	13.554904073433	0.100065242672
36	70159	13.654891315989	0.099987242556
36	70716	13.754839558424	0.099948242435
36	71273	13.85490480073	0.100065242306
36	71830	13.954853042904	0.099948242174
36	72395	14.054879284939	0.100026242035
36	72952	14.154840526831	0.099961241892
36	73509	14.254892768574	0.100052241743
36	74066	14.354919010164	0.10002624159
36	74623	14.454867251595	0.099948241431
36	75180	14.554919492866	0.100052241271
36	75737	14.654919733978	0.100000241112
36	76294	14.754841974938	0.09992224096
36	76851	14.854894215757	0.100052240819
36	77408	14.954829456454	0.099935240697
36	77973	15.054842697049	0.100013240595
36	78530	15.154868937568	0.100026240519
36	79087	15.25485617804	0.099987240472
36	79644	15.354856418487	0.100000240447
36	80201	15.454843658937	0.09998724045
36	80758	15.554921899409	0.100078240472
36	81315	15.654831139918	0.099909240509
36	81872	15.754857380484	0.100026240566
36	82429	15.854896621113	0.100039240629
36	82986	15.954857861819	0.099961240706
36	83551	16.054884102615	0.100026240796
36	84108	16.154871343502	0.099987240887
36	84665	16.254923584492	0.10005224099
36	85222	16.354884825592	0.0999612411
36	85779	16.454924066806	0.100039241214
36	86336	16.554898308141	0.099974241335
36	86893	16.654924549604	0.100026241463
36	87450	16.754911791195	0.099987241591
36	88007	16.854860032922	0.099948241727
36	88564	16.954899274789	0.100039241867
36	89129	17.054847516797	0.099948242008
36	89686	17.154899758945	0.100052242148
36	90243	17.254874001224	0.099974242279
36	90800	17.354887243625	0.100013242401
36	91357	17.454913486128	0.100026242503
36	91914	17.55486172871	0.099948242582
36	92471	17.654874971345	0.100013242635
36	93028	17.754862214009	0.099987242664
36	93585	17.854901456675	0.100039242666
36	94142	17.954836699322	0.099935242647
36	94707	18.054836941929	0.100000242607
36	95264	18.154889184479	0.10005224255
36	95821	18.254850426959	0.09996124248
36	96378	18.354928669355	0.100078242396
36	96935	18.454902911659	0.099974242304
36	97492	18.554864153862	0.099961242203
36	98049	18.654877395956	0.100013242094
36	98606	18.754851637936	0.09997424198
36	99163	18.854916879793	0.100065241857
36	99720	18.954852121522	0.099935241729
36	100285	19.054904363117	0.100052241595
36	100842	19.154839604572	0.099935241455
36	101399	19.254839845884	0.100000241312
36	101956	19.354827087048	0.099987241164
36	102513	19.45486632806	0.100039241012
36	103070	19.55482756892	0.09996124086
36	103627	19.654892809625	0.100065240705
36	104184	19.754854050182	0.099961240557
36	104741	19.854867290607	0.100013240425
36	105298	19.954906530918	0.100039240311
36	105863	20.054854771136	0.099948240218
36	106420	20.154881011285	0.100026240149
36	106977	20.254855251392	0.099974240107
36	107534	20.354829491484	0.099974240092
36	108091	20.454868731587	0.100039240103
36	108648	20.554842971716	0.099974240129
36	109205	20.654882211892	0.100039240176
36	109762	20.754830452127	0.099948240235
36	110319	20.854869692435	0.100039240308
36	110876	20.954856932828	0.099987240393
36	111441	21.054857173313	0.100000240485
36	111998	21.1548964139	0.100039240587
36	112555	21.254870654594	0.099974240694
36	113112	21.3548578954	0.099987240806
36	113669	21.45484513633	0.09998724093
36	114226	21.554884377386	0.100039241056
36	114783	21.654910618573	0.100026241187
36	115340	21.754884859896	0.099974241323
36	115897	21.854846101359	0.099961241463
36	116454	21.954859342967	0.100013241608
36	117019	22.054898584721	0.100039241754
36	117576	22.15483382662	0.099935241899
36	118133	22.254860068655	0.100026242035
36	118690	22.354860310817	0.100000242162
36	119247	22.454847553084	0.099987242267
36	119804	22.554847795436	0.100000242352
36	120361	22.654926037847	0.100078242411
36	120918	22.754848280292	0.099922242445
36	121475	22.854861522745	0.100013242453
36	122032	22.954887765183	0.100026242438
36	122597	23.054927007585	0.100039242402
36	123154	23.154901249936	0.099974242351
36	123711	23.254901492222	0.100000242286
36	124268	23.354836734428	0.099935242206
36	124825	23.454875976549	0.100039242121
36	125382	23.554889218573	0.100013242024
36	125939	23.65485046049	0.099961241917
36	126496	23.754889702297	0.100039241807
36	127053	23.854850943986	0.099961241689
36	127610	23.954864185552	0.100013241566
36	128175	24.054851426989	0.099987241437
36	128732	24.15492966829	0.100078241301
36	129289	24.254851909453	0.099922241163
36	129846	24.354852150473	0.10000024102
36	130403	24.454839391342	0.099987240869
36	130960	24.554826632063	0.099987240721
36	131517	24.654852872636	0.100026240573
36	132074	24.754918113067	0.100065240431
36	132631	24.854892353367	0.0999742403
36	133188	24.954840593559	0.099948240192
36	133753	25.054840833661	0.100000240102
36	134310	25.1548930737	0.100052240039
36	134867	25.254880313701	0.099987240001
36	135424	25.354880553692	0.100000239991
36	135981	25.454906793695	0.100026240003
36	136538	25.554868033729	0.099961240034
36	137095	25.654881273814	0.100013240085
36	137652	25.754855513962	0.099974240148
36	138209	25.854920754189	0.100065240227
36	138766	25.9548689945	0.099948240311
36	139331	26.05492123491	0.10005224041
36	139888	26.154895475424	0.099974240514
36	140445	26.254921716049	0.100026240625
36	141002	26.354856956793	0.099935240744
36	141559	26.45484419766	0.099987240867
36	142116	26.554831438656	0.099987240996
36	142673	26.654844679785	0.100013241129
36	143230	26.754896921054	0.100052241269
36	143787	26.854871162465	0.099974241411
36	144344	26.954884404024	0.100013241559
36	144909	27.05484564573	0.099961241706
36	145466	27.154871887582	0.100026241852
36	146023	27.254885129575	0.100013241993
36	146580	27.354872371695	0.09998724212
36	147137	27.454833613923	0.099961242228
36	147694	27.554924856238	0.100091242315
36	148251	27.654860098615	0.099935242377
36	148808	27.75491234103	0.100052242415
36	149365	27.854912583453	0.100000242423
36	149922	27.954925825864	0.100013242411
36	150487	28.05486106824	0.099935242376
36	151044	28.154848310567	0.099987242327
36	151601	28.254926552829	0.100078242262
36	152158	28.354887795015	0.099961242186
36	152715	28.454875037118	0.099987242103
36	153272	28.554849279125	0.099974242007
36	153829	28.65491452103	0.100065241905
36	154386	28.754914762825	0.100000241795
36	154943	28.854915004503	0.100000241678
36	155500	28.954915246059	0.100000241556
36	156065	29.054902487487	0.099987241428
36	156622	29.154837728784	0.099935241297
36	157179	29.254928969945	0.100091241161
36	157736	29.354877210966	0.099948241021
36	158293	29.454903451837	0.100026240871
36	158850	29.554890692561	0.099987240724
36	159407	29.654890933138	0.100000240577
36	159964	29.754904173576	0.100013240438
36	160521	29.854891413886	0.09998724031
36	161078	29.954839654088	0.099948240202
36	161643	30.054878894203	0.100039240115
36	162200	30.154905134257	0.100026240054
36	162757	30.254827374275	0.099922240018
36	163314	30.354827614283	0.100000240008
36	163871	30.454905854306	0.100078240023
36	164428	30.554880094363	0.099974240057
36	164985	30.654893334471	0.100013240108
36	165542	30.754880574645	0.099987240174
36	166099	30.854841814899	0.099961240254
36	166656	30.95484205524	0.100000240341
36	167221	31.05489429568	0.10005224044
36	167778	31.154881536225	0.099987240545
36	168335	31.254829776881	0.099948240656
36	168892	31.354869017656	0.100039240775
36	169449	31.454856258556	0.0999872409
36	170006	31.554882499586	0.10002624103
36	170563	31.654882740749	0.100000241163
36	171120	31.754843982051	0.099961241302
36	171677	31.854844223496	0.100000241445
36	172234	31.954870465089	0.100026241593
36	172799	32.05488370683	0.100013241741
36	173356	32.154922948718	0.100039241888
36	173913	32.254884190742	0.099961242024
36	174470	32.354858432879	0.099974242137
36	175027	32.454910675092	0.100052242213
36	175584	32.554884917325	0.099974242233
36	176141	32.65485915951	0.099974242185
36	176698	32.754833401556	0.099974242046
36	177255	32.854872643357	0.100039241801
36	177812	32.954898884795	0.100026241438
36	178377	33.054834125743	0.099935240948
36	178934	33.154847366063	0.10001324032
36	179491	33.254873605609	0.100026239546
36	180048	33.35492584423	0.100052238621
36	180605	33.454887081768	0.099961237538
36	181162	33.554835318065	0.099948236297
36	181719	33.65486155296	0.100026234895
36	182276	33.754900786282	0.100039233322
36	182833	33.854914017866	0.100013231584
36	183390	33.95492724754	0.100013229674
36	183955	34.054927475132	0.100000227592
36	184512	34.154901700467	0.099974225335
36	185069	34.254875923375	0.099974222908
36	185626	34.354902143677	0.100026220302
36	186183	34.454876361196	0.099974217519
36	186740	34.554915575759	0.100039214563
36	187297	34.654837787199	0.09992221144
36	187854	34.754837995358	0.100000208159
36	188411	34.854851200089	0.100013204731
36	188968	34.954916401267	0.100065201178
36	189533	35.054890598775	0.099974197508
36	190090	35.154877792528	0.099987193753
36	190647	35.25483898245	0.099961189922
36	191204	35.354852168487	0.100013186037
36	191761	35.454878350596	0.100026182109
36	192318	35.554917528746	0.10003917815
36	192875	35.654826702914	0.099909174168
36	193432	35.754904873087	0.100078170173
36	193989	35.854840039257	0.09993516617
36	194546	35.95486620142	0.100026162163
36	195111	36.054827359577	0.099961158157
36	195668	36.154892513734	0.100065154157
36	196225	36.254892663901	0.100000150167
36	196782	36.354827810084	0.099935146183
36	197339	36.454879952302	0.100052142218
36	197896	36.554880090567	0.100000138265
36	198453	36.654906224897	0.10002613433
36	199010	36.754906355311	0.100000130414
36	199567	36.85486748183	0.099961126519
36	200124	36.954919604477	0.100052122647
36	200689	37.05485472327	0.099935118793
36	201246	37.154919838227	0.100065114957
36	201803	37.254867949351	0.099948111124
36	202360	37.354894056637	0.100026107286
36	202917	37.454855160066	0.099961103429
36	203474	37.554855259599	0.100000099533
36	204031	37.65486835518	0.100013095581
36	204588	37.754920446734	0.100052091554
36	205145	37.854907534171	0.099987087437
36	205702	37.954907617394	0.100000083223
36	206267	38.054881696286	0.099974078892
36	206824	38.154868770729	0.099987074443
36	207381	38.254829840603	0.099961069874
36	207938	38.354842905774	0.100013065171
36	208495	38.454842966109	0.100000060335
36	209052	38.554843021469	0.10000005536
36	209609	38.654830071718	0.099987050249
36	210166	38.754869116716	0.100039044998
36	210723	38.854830156322	0.099961039606
36	211280	38.954830190394	0.100000034072
36	211845	39.054882218789	0.100052028395
36	212402	39.154843241369	0.09996102258
36	212959	39.254908257989	0.10006501662
36	213516	39.354869268506	0.099961010517
36	214073	39.454856272779	0.099987004273
36	214630	39.554882270673	0.100025997894
36	215187	39.654856262056	0.099973991383
36	215744	39.754869246807	0.100012984751
36	216301	39.854830224822	0.099960978015
36	216858	39.954882196011	0.100051971189
36	217423	40.054882160304	0.099999964293
