version 2
run SinusoidalJammingDetail-167-20170801-16:31:32-96649
attr CACCSpacing 5
attr attackAcc -30
attr attackPos 7
attr attackSpeed 150
attr attackStart 31.5
attr attacker 1
attr beaconInterval 0.1
attr configname SinusoidalJammingDetail
attr controller 1
attr datetime 20170801-16:31:32
attr experiment SinusoidalJammingDetail
attr fakeAcc "(1 == 4)"
attr fakePos "(1 == 2)"
attr fakeSpeed "(1 == 3)"
attr inifile omnetpp_167.ini
attr iterationvars "$leaderSpeed=80, $controller=1, $CACCSpacing=5, $sController=\"CACC\", $attacker=1, $attackStart=31.5, $attackSpeed=150, $attackPos=7, $attackAcc=-30, $0=5, $1=0, $nCars=8, $platoonSize=8, $nLanes=1, $beaconInterval=0.1, $priority=2, $packetSize=200, $ploegH=0.5, $leaderHeadway=1.2, $fakeSpeed=(1 == 3), $fakeAcc=(1 == 4), $fakePos=(1 == 2)"
attr iterationvarsf leaderSpeed=80,controller=1,CACCSpacing=5,sController=CACC,attacker=1,attackStart=31.5,attackSpeed=150,attackPos=7,attackAcc=-30,5,0,nCars=8,platoonSize=8,nLanes=1,beaconInterval=0.1,priority=2,packetSize=200,ploegH=0.5,leaderHeadway=1.2,fakeSpeed=(1_==_3),fakeAcc=(1_==_4),fakePos=(1_==_2)-
attr leaderHeadway 1.2
attr leaderSpeed 80
attr measurement "$leaderSpeed=80, $controller=1, $CACCSpacing=5, $sController=\"CACC\", $attacker=1, $attackStart=31.5, $attackSpeed=150, $attackPos=7, $attackAcc=-30, $0=5, $1=0, $nCars=8, $platoonSize=8, $nLanes=1, $beaconInterval=0.1, $priority=2, $packetSize=200, $ploegH=0.5, $leaderHeadway=1.2, $fakeSpeed=(1 == 3), $fakeAcc=(1 == 4), $fakePos=(1 == 2)"
attr nCars 8
attr nLanes 1
attr network scenario
attr packetSize 200
attr platoonSize 8
attr ploegH 0.5
attr priority 2
attr processid 96649
attr repetition 2
attr replication #2
attr resultdir results
attr runnumber 167
attr sController "\"CACC\""
attr seedset 2
param **.coreDebug false
param **.debug false
param **.headway 0.1s
param **.numberOfCars 8
param **.numberOfCarsPerPlatoon 8
param **.numberOfLanes 1
param **.numericController 1
param **.traffic.nCars 8
param **.traffic.nLanes 1
param **.traffic.platoonInsertDistance 5m
param **.traffic.platoonInsertHeadway 0s
param **.traffic.platoonInsertSpeed 80kmph
param **.traffic.platoonInsertTime "1 s"
param **.traffic.platoonLeaderHeadway 1.2s
param **.traffic.platoonSize 8
param **.traffic.platooningVType "\"vtypeauto\""
param **.traffic_type "\"PlatoonsTrafficManager\""
param *.**.nic.mac1609_4.bitrate 6Mbps
param *.**.nic.mac1609_4.txPower 100mW
param *.**.nic.mac1609_4.useServiceChannel false
param *.**.nic.phy80211p.analogueModels "xmldoc(\"config.xml\")"
param *.**.nic.phy80211p.decider "xmldoc(\"config.xml\")"
param *.**.nic.phy80211p.maxTXPower 100mW
param *.**.nic.phy80211p.sensitivity -94dBm
param *.**.nic.phy80211p.thermalNoise -95dBm
param *.**.nic.phy80211p.usePropagationDelay true
param *.**.nic.phy80211p.useThermalNoise true
param *.annotations.draw false
param *.connectionManager.alpha 2.0
param *.connectionManager.carrierFrequency "5.890e9 Hz"
param *.connectionManager.pMax 100mW
param *.connectionManager.sat -94dBm
param *.connectionManager.sendDirect true
param *.manager.autoShutdown true
param *.manager.commandLine "\"sumo --remote-port $port --seed $seed --configuration-file $configFile\""
param *.manager.configFile "\"./sumocfg/freeway.sumo.cfg\""
param *.manager.host "\"localhost\""
param *.manager.margin 25
param *.manager.moduleDisplayString "\"\""
param *.manager.moduleName "\"node\""
param *.manager.moduleType "\"Car\""
param *.manager.updateInterval 0.01s
param *.node[*].appl.attackStart 31.5s
param *.node[*].appl.attackerType 1
param *.node[*].appl.simulationDuration "60 s"
param *.node[*].appl_type "\"SimplePlatooningApp\""
param *.node[*].helper.nCars 8
param *.node[*].helper.nLanes 1
param *.node[*].helper.platoonSize 8
param *.node[*].helper_type "\"PositionHelper\""
param *.node[*].mobility.x 0
param *.node[*].mobility.y 0
param *.node[*].mobility.z 1.895
param *.node[*].prot.attackStart 31.5s
param *.node[*].prot.attackerType 1
param *.node[*].prot.attackingNode 3
param *.node[*].prot.beaconingInterval 0.1s
param *.node[*].prot.fakeAcc "(1 == 4)"
param *.node[*].prot.fakePos "(1 == 2)"
param *.node[*].prot.fakeSpeed "(1 == 3)"
param *.node[*].prot.maliciousAcc "-30 mpss"
param *.node[*].prot.maliciousSpeed 150kmph
param *.node[*].prot.packetSize 200
param *.node[*].prot.priority 2
param *.node[*].prot.shiftX "7 m"
param *.node[*].prot.useControllerAcceleration true
param *.node[*].protocol_type "\"SimplePlatooningBeaconing\""
param *.node[*].scenario.accHeadway 0.1s
param *.node[*].scenario.caccC1 0.5
param *.node[*].scenario.caccOmegaN "0.2 Hz"
param *.node[*].scenario.caccSpacing 5m
param *.node[*].scenario.caccXi 1
param *.node[*].scenario.controller "\"CACC\""
param *.node[*].scenario.engineTau "0.5 s"
param *.node[*].scenario.leaderHeadway 1.2s
param *.node[*].scenario.leaderOscillationFrequency "0.2 Hz"
param *.node[*].scenario.leaderSpeed 80kmph
param *.node[*].scenario.oscillationAmplitude "10 kmph"
param *.node[*].scenario.ploegH 0.5s
param *.node[*].scenario.ploegKd 0.7
param *.node[*].scenario.ploegKp 0.2
param *.node[*].scenario.startOscillating "5 s"
param *.node[*].scenario.useRealisticEngine false
param *.node[*].scenario_type "\"SinusoidalScenario\""
param *.node[*].unicast.packetLossRate 0
param *.obstacles.debug false
param *.playgroundSizeX 65000m
param *.playgroundSizeY 25000m
param *.playgroundSizeZ 50m
param *.world.use2D false
param *.world.useTorus false

vector 0  scenario.node[0].appl  distance  ETV
vector 1  scenario.node[0].appl  relativeSpeed  ETV
vector 2  scenario.node[0].appl  nodeId  ETV
vector 6  scenario.node[0].appl  acceleration  ETV
vector 7  scenario.node[0].appl  controllerAcceleration  ETV
vector 3  scenario.node[0].appl  speed  ETV
vector 4  scenario.node[0].appl  posx  ETV
vector 5  scenario.node[0].appl  posy  ETV
vector 22  scenario.node[1].appl  distance  ETV
vector 23  scenario.node[1].appl  relativeSpeed  ETV
vector 24  scenario.node[1].appl  nodeId  ETV
vector 28  scenario.node[1].appl  acceleration  ETV
vector 29  scenario.node[1].appl  controllerAcceleration  ETV
vector 25  scenario.node[1].appl  speed  ETV
vector 26  scenario.node[1].appl  posx  ETV
vector 27  scenario.node[1].appl  posy  ETV
vector 44  scenario.node[2].appl  distance  ETV
vector 45  scenario.node[2].appl  relativeSpeed  ETV
vector 46  scenario.node[2].appl  nodeId  ETV
vector 50  scenario.node[2].appl  acceleration  ETV
vector 51  scenario.node[2].appl  controllerAcceleration  ETV
vector 47  scenario.node[2].appl  speed  ETV
vector 48  scenario.node[2].appl  posx  ETV
vector 49  scenario.node[2].appl  posy  ETV
vector 66  scenario.node[3].appl  distance  ETV
vector 67  scenario.node[3].appl  relativeSpeed  ETV
vector 68  scenario.node[3].appl  nodeId  ETV
vector 72  scenario.node[3].appl  acceleration  ETV
vector 73  scenario.node[3].appl  controllerAcceleration  ETV
vector 69  scenario.node[3].appl  speed  ETV
vector 70  scenario.node[3].appl  posx  ETV
vector 71  scenario.node[3].appl  posy  ETV
vector 88  scenario.node[4].appl  distance  ETV
vector 89  scenario.node[4].appl  relativeSpeed  ETV
vector 90  scenario.node[4].appl  nodeId  ETV
vector 94  scenario.node[4].appl  acceleration  ETV
vector 95  scenario.node[4].appl  controllerAcceleration  ETV
vector 91  scenario.node[4].appl  speed  ETV
vector 92  scenario.node[4].appl  posx  ETV
vector 93  scenario.node[4].appl  posy  ETV
vector 110  scenario.node[5].appl  distance  ETV
vector 111  scenario.node[5].appl  relativeSpeed  ETV
vector 112  scenario.node[5].appl  nodeId  ETV
vector 116  scenario.node[5].appl  acceleration  ETV
vector 117  scenario.node[5].appl  controllerAcceleration  ETV
vector 113  scenario.node[5].appl  speed  ETV
vector 114  scenario.node[5].appl  posx  ETV
vector 115  scenario.node[5].appl  posy  ETV
vector 132  scenario.node[6].appl  distance  ETV
vector 133  scenario.node[6].appl  relativeSpeed  ETV
vector 134  scenario.node[6].appl  nodeId  ETV
vector 138  scenario.node[6].appl  acceleration  ETV
vector 139  scenario.node[6].appl  controllerAcceleration  ETV
vector 135  scenario.node[6].appl  speed  ETV
vector 136  scenario.node[6].appl  posx  ETV
vector 137  scenario.node[6].appl  posy  ETV
vector 154  scenario.node[7].appl  distance  ETV
vector 155  scenario.node[7].appl  relativeSpeed  ETV
vector 156  scenario.node[7].appl  nodeId  ETV
vector 160  scenario.node[7].appl  acceleration  ETV
vector 161  scenario.node[7].appl  controllerAcceleration  ETV
vector 157  scenario.node[7].appl  speed  ETV
vector 158  scenario.node[7].appl  posx  ETV
vector 159  scenario.node[7].appl  posy  ETV
vector 168  scenario.node[7].prot  frontDelay  ETV
vector 166  scenario.node[7].prot  frontDelayId  ETV
vector 146  scenario.node[6].prot  frontDelay  ETV
vector 144  scenario.node[6].prot  frontDelayId  ETV
vector 35  scenario.node[1].prot  leaderDelay  ETV
vector 33  scenario.node[1].prot  leaderDelayId  ETV
vector 36  scenario.node[1].prot  frontDelay  ETV
vector 34  scenario.node[1].prot  frontDelayId  ETV
vector 57  scenario.node[2].prot  leaderDelay  ETV
vector 55  scenario.node[2].prot  leaderDelayId  ETV
vector 79  scenario.node[3].prot  leaderDelay  ETV
vector 77  scenario.node[3].prot  leaderDelayId  ETV
vector 101  scenario.node[4].prot  leaderDelay  ETV
vector 99  scenario.node[4].prot  leaderDelayId  ETV
vector 123  scenario.node[5].prot  leaderDelay  ETV
vector 121  scenario.node[5].prot  leaderDelayId  ETV
vector 145  scenario.node[6].prot  leaderDelay  ETV
vector 143  scenario.node[6].prot  leaderDelayId  ETV
vector 167  scenario.node[7].prot  leaderDelay  ETV
vector 165  scenario.node[7].prot  leaderDelayId  ETV
vector 102  scenario.node[4].prot  frontDelay  ETV
vector 100  scenario.node[4].prot  frontDelayId  ETV
vector 80  scenario.node[3].prot  frontDelay  ETV
vector 78  scenario.node[3].prot  frontDelayId  ETV
vector 124  scenario.node[5].prot  frontDelay  ETV
vector 122  scenario.node[5].prot  frontDelayId  ETV
vector 58  scenario.node[2].prot  frontDelay  ETV
vector 56  scenario.node[2].prot  frontDelayId  ETV
vector 8  scenario.node[0].prot  nodeId  ETV
vector 9  scenario.node[0].prot  busyTime  ETV
vector 10  scenario.node[0].prot  collisions  ETV
vector 30  scenario.node[1].prot  nodeId  ETV
vector 31  scenario.node[1].prot  busyTime  ETV
vector 32  scenario.node[1].prot  collisions  ETV
vector 52  scenario.node[2].prot  nodeId  ETV
vector 53  scenario.node[2].prot  busyTime  ETV
vector 54  scenario.node[2].prot  collisions  ETV
vector 74  scenario.node[3].prot  nodeId  ETV
vector 75  scenario.node[3].prot  busyTime  ETV
vector 76  scenario.node[3].prot  collisions  ETV
vector 96  scenario.node[4].prot  nodeId  ETV
vector 97  scenario.node[4].prot  busyTime  ETV
vector 98  scenario.node[4].prot  collisions  ETV
vector 118  scenario.node[5].prot  nodeId  ETV
vector 119  scenario.node[5].prot  busyTime  ETV
vector 120  scenario.node[5].prot  collisions  ETV
vector 140  scenario.node[6].prot  nodeId  ETV
vector 141  scenario.node[6].prot  busyTime  ETV
vector 142  scenario.node[6].prot  collisions  ETV
vector 162  scenario.node[7].prot  nodeId  ETV
vector 163  scenario.node[7].prot  busyTime  ETV
vector 164  scenario.node[7].prot  collisions  ETV
7	232	1.11	8.430731206488e-07
7	788	1.21	8.247038785214e-07
7	1344	1.31	7.948429328053e-07
7	1900	1.41	7.5609037608615e-07
7	2456	1.51	7.1073863239235e-07
7	3012	1.61	6.6078666094427e-07
7	3568	1.71	6.079568990458e-07
7	4124	1.81	5.5371389606762e-07
7	4680	1.91	4.9928438983216e-07
7	5244	2.01	4.4567811841034e-07
7	5800	2.11	3.9370868165634e-07
7	6356	2.21	3.4401411852514e-07
7	6912	2.31	2.9707706872273e-07
7	7468	2.41	2.5324398578164e-07
7	8024	2.51	2.1274344064182e-07
7	8580	2.61	1.7570315336002e-07
7	9136	2.71	1.4216582755466e-07
7	9692	2.81	1.1210364547765e-07
7	10248	2.91	8.5431519636359e-08
7	10812	3.01	6.2018816748832e-08
7	11368	3.11	4.1699859565369e-08
7	11924	3.21	2.4283316690799e-08
7	12480	3.31	9.5601571103998e-09
7	13036	3.41	-2.6894362292751e-09
7	13592	3.51	-1.2690140493987e-08
7	14148	3.61	-2.0666576006079e-08
7	14704	3.71	-2.6839355626862e-08
7	15260	3.81	-3.1421798496467e-08
7	15816	3.91	-3.4617407607129e-08
7	16380	4.01	-3.6617997523081e-08
7	16936	4.11	-3.7602347902066e-08
7	17492	4.21	-3.7735404134764e-08
7	18048	4.31	-3.7167730226884e-08
7	18604	4.41	-3.6035434192172e-08
7	19160	4.51	-3.446024621212e-08
7	19716	4.61	-3.2549973383311e-08
7	20272	4.71	-3.0399071704323e-08
7	20828	4.81	-2.8089345960325e-08
7	21384	4.91	-2.5690727767369e-08
7	21949	5.01	-2.326218861981e-08
7	22506	5.11	0.34814785015927
7	23063	5.21	0.68726933461214
7	23620	5.31	1.0064705986278
7	24177	5.41	1.2963311417008
7	24734	5.51	1.5
7	25291	5.61	1.5
7	25848	5.71	1.5
7	26405	5.81	1.5
7	26962	5.91	1.5
7	27527	6.01	1.5
7	28084	6.11	1.5
7	28641	6.21	1.5
7	29198	6.31	1.5
7	29755	6.41	1.5
7	30312	6.51	1.49192340766
7	30869	6.61	1.22649932262
7	31426	6.71	0.92305383478006
7	31983	6.81	0.58908101519542
7	32540	6.91	0.23235621239028
7	33105	7.01	-0.13919560128961
7	33662	7.11	-0.5176284684353
7	34219	7.21	-0.89509994168449
7	34776	7.31	-1.2639902903501
7	35333	7.41	-1.5
7	35890	7.51	-1.5
7	36447	7.61	-1.5
7	37004	7.71	-1.5
7	37561	7.81	-1.5
7	38118	7.91	-1.5
7	38683	8.01	-1.5
7	39240	8.11	-1.5
7	39797	8.21	-1.5
7	40354	8.31	-1.5
7	40911	8.41	-1.5
7	41468	8.51	-1.5
7	42025	8.61	-1.5
7	42582	8.71	-1.5
7	43139	8.81	-1.5
7	43696	8.91	-1.5
7	44261	9.01	-1.5
7	44818	9.11	-1.5
7	45375	9.21	-1.5
7	45932	9.31	-1.5
7	46489	9.41	-1.5
7	47046	9.51	-1.1784535907027
7	47603	9.61	-0.73985166445766
7	48160	9.71	-0.29046662083969
7	48717	9.81	0.158682056465
7	49274	9.91	0.59737147669388
7	49839	10.01	1.0162504339893
7	50396	10.11	1.4069035497099
7	50953	10.21	1.5
7	51510	10.31	1.5
7	52067	10.41	1.5
7	52624	10.51	1.5
7	53181	10.61	1.5
7	53738	10.71	1.5
7	54295	10.81	1.5
7	54852	10.91	1.5
7	55417	11.01	1.5
7	55974	11.11	1.5
7	56531	11.21	1.5
7	57088	11.31	1.5
7	57645	11.41	1.5
7	58202	11.51	1.5
7	58759	11.61	1.5
7	59316	11.71	1.5
7	59873	11.81	1.5
7	60430	11.91	1.1420569522637
7	60995	12.01	0.73271074167055
7	61552	12.11	0.3076349169641
7	62109	12.21	-0.12290183406852
7	62666	12.31	-0.54917422870931
7	63223	12.41	-0.96209331721755
7	63780	12.51	-1.3532900275778
7	64337	12.61	-1.5
7	64894	12.71	-1.5
7	65451	12.81	-1.5
7	66008	12.91	-1.5
7	66573	13.01	-1.5
7	67130	13.11	-1.5
7	67687	13.21	-1.5
7	68244	13.31	-1.5
7	68801	13.41	-1.5
7	69358	13.51	-1.5
7	69915	13.61	-1.5
7	70472	13.71	-1.5
7	71029	13.81	-1.5
7	71586	13.91	-1.5
7	72151	14.01	-1.5
7	72708	14.11	-1.5
7	73265	14.21	-1.5
7	73822	14.31	-1.5
7	74379	14.41	-1.3008305793368
7	74936	14.51	-0.88835736023102
7	75493	14.61	-0.45792464376746
7	76050	14.71	-0.020297800498863
7	76607	14.81	0.41435934755698
7	77164	14.91	0.83657487483132
7	77729	15.01	1.2376491838803
7	78286	15.11	1.5
7	78843	15.21	1.5
7	79400	15.31	1.5
7	79957	15.41	1.5
7	80514	15.51	1.5
7	81071	15.61	1.5
7	81628	15.71	1.5
7	82185	15.81	1.5
7	82742	15.91	1.5
7	83307	16.01	1.5
7	83864	16.11	1.5
7	84421	16.21	1.5
7	84978	16.31	1.5
7	85535	16.41	1.5
7	86092	16.51	1.5
7	86649	16.61	1.5
7	87206	16.71	1.5
7	87763	16.81	1.5
7	88320	16.91	1.2451238477314
7	88885	17.01	0.83347870134691
7	89442	17.11	0.40470958876234
7	89999	17.21	-0.03059806222544
7	90556	17.31	-0.46243980387284
7	91113	17.41	-0.88148335305215
7	91670	17.51	-1.2791500631777
7	92227	17.61	-1.5
7	92784	17.71	-1.5
7	93341	17.81	-1.5
7	93898	17.91	-1.5
7	94463	18.01	-1.5
7	95020	18.11	-1.5
7	95577	18.21	-1.5
7	96134	18.31	-1.5
7	96691	18.41	-1.5
7	97248	18.51	-1.5
7	97805	18.61	-1.5
7	98362	18.71	-1.5
7	98919	18.81	-1.5
7	99476	18.91	-1.5
7	100041	19.01	-1.5
7	100598	19.11	-1.5
7	101155	19.21	-1.5
7	101712	19.31	-1.5
7	102269	19.41	-1.2657245815164
7	102826	19.51	-0.85377693481871
7	103383	19.61	-0.4243956003844
7	103940	19.71	0.011767371264867
7	104497	19.81	0.44464851836084
7	105054	19.91	0.86486384400239
7	105619	20.01	1.2637899041101
7	106176	20.11	1.5
7	106733	20.21	1.5
7	107290	20.31	1.5
7	107847	20.41	1.5
7	108404	20.51	1.5
7	108961	20.61	1.5
7	109518	20.71	1.5
7	110075	20.81	1.5
7	110632	20.91	1.5
7	111197	21.01	1.5
7	111754	21.11	1.5
7	112311	21.21	1.5
7	112868	21.31	1.5
7	113425	21.41	1.5
7	113982	21.51	1.5
7	114539	21.61	1.5
7	115096	21.71	1.5
7	115653	21.81	1.5
7	116210	21.91	1.2580915517753
7	116775	22.01	0.84625491634726
7	117332	22.11	0.41709956367407
7	117889	22.21	-0.018747163543662
7	118446	22.31	-0.45124369149508
7	119003	22.41	-0.87102520538678
7	119560	22.51	-1.2694848794604
7	120117	22.61	-1.5
7	120674	22.71	-1.5
7	121231	22.81	-1.5
7	121788	22.91	-1.5
7	122353	23.01	-1.5
7	122910	23.11	-1.5
7	123467	23.21	-1.5
7	124024	23.31	-1.5
7	124581	23.41	-1.5
7	125138	23.51	-1.5
7	125695	23.61	-1.5
7	126252	23.71	-1.5
7	126809	23.81	-1.5
7	127366	23.91	-1.5
7	127931	24.01	-1.5
7	128488	24.11	-1.5
7	129045	24.21	-1.5
7	129602	24.31	-1.5
7	130159	24.41	-1.2609239651119
7	130716	24.51	-0.84904615684549
7	131273	24.61	-0.41980696481121
7	131830	24.71	0.016157099446048
7	132387	24.81	0.44879633966007
7	132944	24.91	0.86873882266865
7	133509	25.01	1.2673715557193
7	134066	25.11	1.5
7	134623	25.21	1.5
7	135180	25.31	1.5
7	135737	25.41	1.5
7	136294	25.51	1.5
7	136851	25.61	1.5
7	137408	25.71	1.5
7	137965	25.81	1.5
7	138522	25.91	1.5
7	139087	26.01	1.5
7	139644	26.11	1.5
7	140201	26.21	1.5
7	140758	26.31	1.5
7	141315	26.41	1.5
7	141872	26.51	1.5
7	142429	26.61	1.5
7	142986	26.71	1.5
7	143543	26.81	1.5
7	144100	26.91	1.2598728518627
7	144665	27.01	0.84801032251372
7	145222	27.11	0.41880224309083
7	145779	27.21	-0.017118277442513
7	146336	27.31	-0.44970455708465
7	146893	27.41	-0.86958730431945
7	147450	27.51	-1.2681558149833
7	148007	27.61	-1.5
7	148564	27.71	-1.5
7	149121	27.81	-1.5
7	149678	27.91	-1.5
7	150243	28.01	-1.5
7	150800	28.11	-1.5
7	151357	28.21	-1.5
7	151914	28.31	-1.5
7	152471	28.41	-1.5
7	153028	28.51	-1.5
7	153585	28.61	-1.5
7	154142	28.71	-1.5
7	154699	28.81	-1.5
7	155256	28.91	-1.5
7	155821	29.01	-1.5
7	156378	29.11	-1.5
7	156935	29.21	-1.5
7	157492	29.31	-1.5
7	158049	29.41	-1.2602629232518
7	158606	29.51	-0.84839472385647
7	159163	29.61	-0.41917509845289
7	159720	29.71	0.016761581286932
7	160277	29.81	0.44936751475819
7	160834	29.91	0.86927243012153
7	161399	30.01	1.2678647739108
7	161956	30.11	1.5
7	162513	30.21	1.5
7	163070	30.31	1.5
7	163627	30.41	1.5
7	164184	30.51	1.5
7	164741	30.61	1.5
7	165298	30.71	1.5
7	165855	30.81	1.5
7	166412	30.91	1.5
7	166977	31.01	1.5
7	167534	31.11	1.5
7	168091	31.21	1.5
7	168648	31.31	1.5
7	169205	31.41	1.5
7	169762	31.51	1.5
7	170319	31.61	1.5
7	170876	31.71	1.5
7	171433	31.81	1.5
7	171990	31.91	1.2601181665206
7	172555	32.01	0.84825207129739
7	173112	32.11	0.41903673064385
7	173669	32.21	-0.016893952363201
7	174226	32.31	-0.44949259223613
7	174783	32.41	-0.8693892809366
7	175340	32.51	-1.2679727801774
7	175897	32.61	-1.5
7	176454	32.71	-1.5
7	177011	32.81	-1.5
7	177568	32.91	-1.5
7	178133	33.01	-1.5
7	178690	33.11	-1.5
7	179247	33.21	-1.5
7	179804	33.31	-1.5
7	180361	33.41	-1.5
7	180918	33.51	-1.5
7	181475	33.61	-1.5
7	182032	33.71	-1.5
7	182589	33.81	-1.5
7	183146	33.91	-1.5
7	183711	34.01	-1.5
7	184268	34.11	-1.5
7	184825	34.21	-1.5
7	185382	34.31	-1.5
7	185939	34.41	-1.2601718862039
7	186496	34.51	-0.84830501011572
7	187053	34.61	-0.41908807937784
7	187610	34.71	0.016844829035751
7	188167	34.81	0.44944617558619
6	232	1.11	1.2391545567425e-07
6	788	1.21	2.514333630188e-07
6	1344	1.31	3.5153284727585e-07
6	1900	1.41	4.2734420446777e-07
6	2456	1.51	4.8187125401e-07
6	3012	1.61	5.1795971955926e-07
6	3568	1.71	5.3827413637464e-07
6	4124	1.81	5.4528506154838e-07
6	4680	1.91	5.4125663950799e-07
6	5244	2.01	5.2824375984528e-07
6	5800	2.11	5.080941889446e-07
6	6356	2.21	4.8245141215375e-07
6	6912	2.31	4.5276244975412e-07
6	7468	2.41	4.202860282021e-07
6	8024	2.51	3.8610643571246e-07
6	8580	2.61	3.5114133822844e-07
6	9136	2.71	3.1616025353287e-07
6	9692	2.81	2.8179307776099e-07
6	10248	2.91	2.4854536206931e-07
6	10812	3.01	2.1681287876163e-07
6	11368	3.11	1.8689298997288e-07
6	11924	3.21	1.5899530581009e-07
6	12480	3.31	1.3325838210676e-07
6	13036	3.41	1.0975469422192e-07
6	13592	3.51	8.8505203166278e-08
6	14148	3.61	6.948575048682e-08
6	14704	3.71	5.263665059374e-08
6	15260	3.81	3.7870506730542e-08
6	15816	3.91	2.5077895315917e-08
6	16380	4.01	1.4133405557004e-08
6	16936	4.11	4.9016790626411e-09
6	17492	4.21	-2.7593927143243e-09
6	18048	4.31	-8.9940499492513e-09
6	18604	4.41	-1.3947598631603e-08
6	19160	4.51	-1.7761081494427e-08
6	19716	4.61	-2.0570567471623e-08
6	20272	4.71	-2.2507151697937e-08
6	20828	4.81	-2.3691626438449e-08
6	21384	4.91	-2.4239099616352e-08
6	21949	5.01	-2.4253310471067e-08
6	22506	5.11	0.0068264050138822
6	23063	5.21	0.074594790622484
6	23620	5.31	0.19005130280156
6	24177	5.41	0.34050268492081
6	24734	5.51	0.51301635125718
6	25291	5.61	0.69025455388463
6	25848	5.71	0.83572669994751
6	26405	5.81	0.95506452764909
6	26962	5.91	1.0529631117155
6	27527	6.01	1.1332740487145
6	28084	6.11	1.1991569893425
6	28641	6.21	1.2532039476781
6	29198	6.31	1.2975412780619
6	29755	6.41	1.3339133316631
6	30312	6.51	1.3635927194422
6	30869	6.61	1.3702053558546
6	31426	6.71	1.3272611868377
6	31983	6.81	1.2373810863703
6	32540	6.91	1.10404336986
6	33105	7.01	0.93147091462953
6	33662	7.11	0.72451590042988
6	34219	7.21	0.48854317855174
6	34776	7.31	0.22931329168649
6	35333	7.41	-0.044839402561792
6	35890	7.51	-0.30626147784645
6	36447	7.61	-0.52071863285548
6	37004	7.71	-0.69664819536399
6	37561	7.81	-0.84097171286572
6	38118	7.91	-0.95936726507979
6	38683	8.01	-1.0564928550515
6	39240	8.11	-1.1361696676595
6	39797	8.21	-1.2015324054218
6	40354	8.31	-1.2551526162195
6	40911	8.41	-1.299139864987
6	41468	8.51	-1.3352247297291
6	42025	8.61	-1.3648268871716
6	42582	8.71	-1.3891109667025
6	43139	8.81	-1.40903237006
6	43696	8.91	-1.4253748594349
6	44261	9.01	-1.4387813928092
6	44818	9.11	-1.4497794196703
6	45375	9.21	-1.4588016323081
6	45932	9.31	-1.466202989106
6	46489	9.41	-1.4722746795719
6	47046	9.51	-1.4696249147679
6	47603	9.61	-1.3967850640324
6	48160	9.71	-1.2587757642699
6	48717	9.81	-1.066095221946
6	49274	9.91	-0.8292333503487
6	49839	10.01	-0.55852907850635
6	50396	10.11	-0.26404116086489
6	50953	10.21	0.039432698568831
6	51510	10.31	0.30182609741765
6	52067	10.41	0.51708007606237
6	52624	10.51	0.69366331148437
6	53181	10.61	0.83852306844925
6	53738	10.71	0.9573585237959
6	54295	10.81	1.0548449875539
6	54852	10.91	1.1348178423589
6	55417	11.01	1.2004234378345
6	55974	11.11	1.2542428765453
6	56531	11.21	1.2983935615914
6	57088	11.31	1.3346125010074
6	57645	11.41	1.3643246463804
6	58202	11.51	1.3886989543238
6	58759	11.61	1.4086943764056
6	59316	11.71	1.425097586916
6	59873	11.81	1.4385539327701
6	60430	11.91	1.4345627372659
6	60995	12.01	1.3623449188493
6	61552	12.11	1.2299875654136
6	62109	12.21	1.046144839739
6	62666	12.31	0.81967864244703
6	63223	12.41	0.55952045900121
6	63780	12.51	0.27454262944673
6	64337	12.61	-0.022341644921298
6	64894	12.71	-0.28780548061533
6	65451	12.81	-0.50557828690501
6	66008	12.91	-0.68422783830435
6	66573	13.01	-0.83078269406727
6	67130	13.11	-0.95100872083052
6	67687	13.21	-1.0496359374866
6	68244	13.31	-1.1305446069922
6	68801	13.41	-1.1969178964666
6	69358	13.51	-1.2513671116437
6	69915	13.61	-1.2960344327443
6	70472	13.71	-1.3326771936686
6	71029	13.81	-1.3627370202961
6	71586	13.91	-1.387396547964
6	72151	14.01	-1.4076259495617
6	72708	14.11	-1.4242211047701
6	73265	14.21	-1.4378349121323
6	73822	14.31	-1.4490029758559
6	74379	14.41	-1.4542593951862
6	74936	14.51	-1.406745439008
6	75493	14.61	-1.2938574955371
6	76050	14.71	-1.1248409052335
6	76607	14.81	-0.90912582143545
6	77164	14.91	-0.65618298377075
6	77729	15.01	-0.37539052554685
6	78286	15.11	-0.078063005097917
6	78843	15.21	0.20543869667193
6	79400	15.31	0.43800883573084
6	79957	15.41	0.6287973539095
6	80514	15.51	0.78531039043277
6	81071	15.61	0.91370559385275
6	81628	15.71	1.0190343806912
6	82185	15.81	1.1054406719015
6	82742	15.91	1.1763239259945
6	83307	16.01	1.2344728829795
6	83864	16.11	1.2821752809813
6	84421	16.21	1.3213078620826
6	84978	16.31	1.3534102084588
6	85535	16.41	1.37974531373
6	86092	16.51	1.401349272566
6	86649	16.61	1.4190720434684
6	87206	16.71	1.4336108884475
6	87763	16.81	1.445537805208
6	88320	16.91	1.4502949065324
6	88885	17.01	1.3935559567514
6	89442	17.11	1.2733368701429
6	89999	17.21	1.0986742440515
6	90556	17.31	0.87879676591136
6	91113	17.41	0.62298329275663
6	91670	17.51	0.34043137853068
6	92227	17.61	0.043031849076769
6	92784	17.71	-0.23417644595618
6	93341	17.81	-0.46158379949794
6	93898	17.91	-0.64813703535584
6	94463	18.01	-0.80117566522766
6	95020	18.11	-0.92672064505805
6	95577	18.21	-1.0297112558195
6	96134	18.31	-1.114199428261
6	96691	18.41	-1.1835091568834
6	97248	18.51	-1.2403672749233
6	97805	18.61	-1.2870107353912
6	98362	18.71	-1.3252746188865
6	98919	18.81	-1.3566643306593
6	99476	18.91	-1.382414827345
6	100041	19.01	-1.4035392035215
6	100598	19.11	-1.4208685496044
6	101155	19.21	-1.4350846492011
6	101712	19.31	-1.4467468023362
6	102269	19.41	-1.4517201941779
6	102826	19.51	-1.3984004323895
6	103383	19.61	-1.2808993810108
6	103940	19.71	-1.1083308503789
6	104497	19.81	-0.88999806037009
6	105054	19.91	-0.63525086467102
6	105619	20.01	-0.35335363991607
6	106176	20.11	-0.055983891309808
6	106733	20.21	0.22355126013096
6	107290	20.31	0.45286744637067
6	107847	20.41	0.64098658988634
6	108404	20.51	0.79530980944291
6	108961	20.61	0.9219086002382
6	109518	20.71	1.0257637030328
6	110075	20.81	1.1109610600439
6	110632	20.91	1.1808525670215
6	111197	21.01	1.2381879459461
6	111754	21.11	1.2852229265697
6	112311	21.21	1.3238079929597
6	112868	21.31	1.3554611865729
6	113425	21.41	1.3814278301389
6	113982	21.51	1.4027295220426
6	114539	21.61	1.4202043287792
6	115096	21.71	1.4345397567762
6	115653	21.81	1.4462998007623
6	116210	21.91	1.4512038299458
6	116775	22.01	1.3966149622043
6	117332	22.11	1.2781048258539
6	117889	22.21	1.1047586168253
6	118446	22.31	0.88585193073918
6	119003	22.41	0.63070830476057
6	119560	22.51	0.34856734380959
6	120117	22.61	0.051185654370656
6	120674	22.71	-0.22748748564574
6	121231	22.81	-0.45609652228009
6	121788	22.91	-0.64363555681872
6	122353	23.01	-0.79748288496297
6	122910	23.11	-0.92369127904632
6	123467	23.21	-1.0272261205632
6	124024	23.31	-1.1121607517786
6	124581	23.41	-1.1818367320966
6	125138	23.51	-1.2389953040923
6	125695	23.61	-1.2858852414528
6	126252	23.71	-1.3243513218477
6	126809	23.81	-1.3559069055024
6	127366	23.91	-1.3817934749049
6	127931	24.01	-1.4030294781044
6	128488	24.11	-1.4204503972252
6	129045	24.21	-1.434741618608
6	129602	24.31	-1.4464653977726
6	130159	24.41	-1.4513952146881
6	130716	24.51	-1.3972773206763
6	131273	24.61	-1.2791416668563
6	131830	24.71	-1.1060840673021
6	132387	24.81	-0.88739036841652
6	132944	24.91	-0.63239387292597
6	133509	25.01	-0.35034337810913
6	134066	25.11	-0.052966136909305
6	134623	25.21	0.2260268698226
6	135180	25.31	0.45489830857264
6	135737	25.41	0.64265260424108
6	136294	25.51	0.79667652148672
6	136851	25.61	0.92302978013947
6	137408	25.71	1.026683461059
6	137965	25.81	1.1117155819772
6	138522	25.91	1.1814715378073
6	139087	26.01	1.2386957175785
6	139644	26.11	1.2856394761656
6	140201	26.21	1.3241497087126
6	140758	26.31	1.3557415125099
6	141315	26.41	1.381657795045
6	141872	26.51	1.4029181733619
6	142429	26.61	1.4203590885685
6	142986	26.71	1.4346667137069
6	143543	26.81	1.4464039496644
6	144100	26.91	1.4513241957726
6	144665	27.01	1.3970315218256
6	145222	27.11	1.2787568961965
6	145779	27.21	1.1055921925461
6	146336	27.31	0.88681945319387
6	146893	27.41	0.63176835684509
6	147450	27.51	0.34968428947479
6	148007	27.61	0.05230539719534
6	148564	27.71	-0.22656890652399
6	149121	27.81	-0.45534296745871
6	149678	27.91	-0.64301737940262
6	150243	28.01	-0.79697576417068
6	150800	28.11	-0.92327526336611
6	151357	28.21	-1.0268848428069
6	151914	28.31	-1.1118807851517
6	152471	28.41	-1.1816070619506
6	153028	28.51	-1.2388068945789
6	153585	28.61	-1.2857306800289
6	154142	28.71	-1.3242245276459
6	154699	28.81	-1.3558028900945
6	155256	28.91	-1.3817081460427
6	155821	29.01	-1.4029594787171
6	156378	29.11	-1.4203929733469
6	156935	29.21	-1.4346945110272
6	157492	29.31	-1.4464267531491
6	158049	29.41	-1.4513505510322
6	158606	29.51	-1.3971227384761
6	159163	29.61	-1.2788996857307
6	159720	29.71	-1.1057747287555
6	160277	29.81	-0.88703132157555
6	160834	29.91	-0.63200048778391
6	161399	30.01	-0.34992887929981
6	161956	30.11	-0.052550599748002
6	162513	30.21	0.22636775502605
6	163070	30.31	0.45517795316989
6	163627	30.41	0.64288201021121
6	164184	30.51	0.79686471428424
6	164741	30.61	0.92318416378099
6	165298	30.71	1.0268101094166
6	165855	30.81	1.1118194777413
6	166412	30.91	1.1815567685208
6	166977	31.01	1.2387656364488
6	167534	31.11	1.2856968339918
6	168091	31.21	1.324196762107
6	168648	31.31	1.3557801126822
6	169205	31.41	1.3816894606308
6	169762	31.51	1.4029441501705
6	170319	31.61	1.4203803985996
6	170876	31.71	1.4346841953547
6	171433	31.81	1.4464182907037
6	171990	31.91	1.451340770512
6	172555	32.01	1.397088887688
6	173112	32.11	1.2788466960817
6	173669	32.21	1.105706988989
6	174226	32.31	0.88695269654693
6	174783	32.41	0.6319143432556
6	175340	32.51	0.34983811123936
6	175897	32.61	0.052459604302157
6	176454	32.71	-0.22644240298604
6	177011	32.81	-0.45523919049693
6	177568	32.91	-0.64293224614822
6	178133	33.01	-0.7969059252499
6	178690	33.11	-0.92321797112582
6	179247	33.21	-1.0268378432144
6	179804	33.31	-1.1118422291158
6	180361	33.41	-1.181575432572
6	180918	33.51	-1.2387809474717
6	181475	33.61	-1.2857093943634
6	182032	33.71	-1.3242070659867
6	182589	33.81	-1.3557885654517
6	183146	33.91	-1.3816963948457
6	183711	34.01	-1.4029498386424
6	184268	34.11	-1.4203850651278
6	184825	34.21	-1.434688023533
6	185382	34.31	-1.4464214311442
6	185939	34.41	-1.4513444000944
6	186496	34.51	-1.3971014498232
6	187053	34.61	-1.2788663607083
6	187610	34.71	-1.1057321274315
6	188167	34.81	-0.88698187454526
5	232	1.11	36.55
5	788	1.21	36.55
5	1344	1.31	36.55
5	1900	1.41	36.55
5	2456	1.51	36.55
5	3012	1.61	36.55
5	3568	1.71	36.55
5	4124	1.81	36.55
5	4680	1.91	36.55
5	5244	2.01	36.55
5	5800	2.11	36.55
5	6356	2.21	36.55
5	6912	2.31	36.55
5	7468	2.41	36.55
5	8024	2.51	36.55
5	8580	2.61	36.55
5	9136	2.71	36.55
5	9692	2.81	36.55
5	10248	2.91	36.55
5	10812	3.01	36.55
5	11368	3.11	36.55
5	11924	3.21	36.55
5	12480	3.31	36.55
5	13036	3.41	36.55
5	13592	3.51	36.55
5	14148	3.61	36.55
5	14704	3.71	36.55
5	15260	3.81	36.55
5	15816	3.91	36.55
5	16380	4.01	36.55
5	16936	4.11	36.55
5	17492	4.21	36.55
5	18048	4.31	36.55
5	18604	4.41	36.55
5	19160	4.51	36.55
5	19716	4.61	36.55
5	20272	4.71	36.55
5	20828	4.81	36.55
5	21384	4.91	36.55
5	21949	5.01	36.55
5	22506	5.11	36.55
5	23063	5.21	36.55
5	23620	5.31	36.55
5	24177	5.41	36.55
5	24734	5.51	36.55
5	25291	5.61	36.55
5	25848	5.71	36.55
5	26405	5.81	36.55
5	26962	5.91	36.55
5	27527	6.01	36.55
5	28084	6.11	36.55
5	28641	6.21	36.55
5	29198	6.31	36.55
5	29755	6.41	36.55
5	30312	6.51	36.55
5	30869	6.61	36.55
5	31426	6.71	36.55
5	31983	6.81	36.55
5	32540	6.91	36.55
5	33105	7.01	36.55
5	33662	7.11	36.55
5	34219	7.21	36.55
5	34776	7.31	36.55
5	35333	7.41	36.55
5	35890	7.51	36.55
5	36447	7.61	36.55
5	37004	7.71	36.55
5	37561	7.81	36.55
5	38118	7.91	36.55
5	38683	8.01	36.55
5	39240	8.11	36.55
5	39797	8.21	36.55
5	40354	8.31	36.55
5	40911	8.41	36.55
5	41468	8.51	36.55
5	42025	8.61	36.55
5	42582	8.71	36.55
5	43139	8.81	36.55
5	43696	8.91	36.55
5	44261	9.01	36.55
5	44818	9.11	36.55
5	45375	9.21	36.55
5	45932	9.31	36.55
5	46489	9.41	36.55
5	47046	9.51	36.55
5	47603	9.61	36.55
5	48160	9.71	36.55
5	48717	9.81	36.55
5	49274	9.91	36.55
5	49839	10.01	36.55
5	50396	10.11	36.55
5	50953	10.21	36.55
5	51510	10.31	36.55
5	52067	10.41	36.55
5	52624	10.51	36.55
5	53181	10.61	36.55
5	53738	10.71	36.55
5	54295	10.81	36.55
5	54852	10.91	36.55
5	55417	11.01	36.55
5	55974	11.11	36.55
5	56531	11.21	36.55
5	57088	11.31	36.55
5	57645	11.41	36.55
5	58202	11.51	36.55
5	58759	11.61	36.55
5	59316	11.71	36.55
5	59873	11.81	36.55
5	60430	11.91	36.55
5	60995	12.01	36.55
5	61552	12.11	36.55
5	62109	12.21	36.55
5	62666	12.31	36.55
5	63223	12.41	36.55
5	63780	12.51	36.55
5	64337	12.61	36.55
5	64894	12.71	36.55
5	65451	12.81	36.55
5	66008	12.91	36.55
5	66573	13.01	36.55
5	67130	13.11	36.55
5	67687	13.21	36.55
5	68244	13.31	36.55
5	68801	13.41	36.55
5	69358	13.51	36.55
5	69915	13.61	36.55
5	70472	13.71	36.55
5	71029	13.81	36.55
5	71586	13.91	36.55
5	72151	14.01	36.55
5	72708	14.11	36.55
5	73265	14.21	36.55
5	73822	14.31	36.55
5	74379	14.41	36.55
5	74936	14.51	36.55
5	75493	14.61	36.55
5	76050	14.71	36.55
5	76607	14.81	36.55
5	77164	14.91	36.55
5	77729	15.01	36.55
5	78286	15.11	36.55
5	78843	15.21	36.55
5	79400	15.31	36.55
5	79957	15.41	36.55
5	80514	15.51	36.55
5	81071	15.61	36.55
5	81628	15.71	36.55
5	82185	15.81	36.55
5	82742	15.91	36.55
5	83307	16.01	36.55
5	83864	16.11	36.55
5	84421	16.21	36.55
5	84978	16.31	36.55
5	85535	16.41	36.55
5	86092	16.51	36.55
5	86649	16.61	36.55
5	87206	16.71	36.55
5	87763	16.81	36.55
5	88320	16.91	36.55
5	88885	17.01	36.55
5	89442	17.11	36.55
5	89999	17.21	36.55
5	90556	17.31	36.55
5	91113	17.41	36.55
5	91670	17.51	36.55
5	92227	17.61	36.55
5	92784	17.71	36.55
5	93341	17.81	36.55
5	93898	17.91	36.55
5	94463	18.01	36.55
5	95020	18.11	36.55
5	95577	18.21	36.55
5	96134	18.31	36.55
5	96691	18.41	36.55
5	97248	18.51	36.55
5	97805	18.61	36.55
5	98362	18.71	36.55
5	98919	18.81	36.55
5	99476	18.91	36.55
5	100041	19.01	36.55
5	100598	19.11	36.55
5	101155	19.21	36.55
5	101712	19.31	36.55
5	102269	19.41	36.55
5	102826	19.51	36.55
5	103383	19.61	36.55
5	103940	19.71	36.55
5	104497	19.81	36.55
5	105054	19.91	36.55
5	105619	20.01	36.55
5	106176	20.11	36.55
5	106733	20.21	36.55
5	107290	20.31	36.55
5	107847	20.41	36.55
5	108404	20.51	36.55
5	108961	20.61	36.55
5	109518	20.71	36.55
5	110075	20.81	36.55
5	110632	20.91	36.55
5	111197	21.01	36.55
5	111754	21.11	36.55
5	112311	21.21	36.55
5	112868	21.31	36.55
5	113425	21.41	36.55
5	113982	21.51	36.55
5	114539	21.61	36.55
5	115096	21.71	36.55
5	115653	21.81	36.55
5	116210	21.91	36.55
5	116775	22.01	36.55
5	117332	22.11	36.55
5	117889	22.21	36.55
5	118446	22.31	36.55
5	119003	22.41	36.55
5	119560	22.51	36.55
5	120117	22.61	36.55
5	120674	22.71	36.55
5	121231	22.81	36.55
5	121788	22.91	36.55
5	122353	23.01	36.55
5	122910	23.11	36.55
5	123467	23.21	36.55
5	124024	23.31	36.55
5	124581	23.41	36.55
5	125138	23.51	36.55
5	125695	23.61	36.55
5	126252	23.71	36.55
5	126809	23.81	36.55
5	127366	23.91	36.55
5	127931	24.01	36.55
5	128488	24.11	36.55
5	129045	24.21	36.55
5	129602	24.31	36.55
5	130159	24.41	36.55
5	130716	24.51	36.55
5	131273	24.61	36.55
5	131830	24.71	36.55
5	132387	24.81	36.55
5	132944	24.91	36.55
5	133509	25.01	36.55
5	134066	25.11	36.55
5	134623	25.21	36.55
5	135180	25.31	36.55
5	135737	25.41	36.55
5	136294	25.51	36.55
5	136851	25.61	36.55
5	137408	25.71	36.55
5	137965	25.81	36.55
5	138522	25.91	36.55
5	139087	26.01	36.55
5	139644	26.11	36.55
5	140201	26.21	36.55
5	140758	26.31	36.55
5	141315	26.41	36.55
5	141872	26.51	36.55
5	142429	26.61	36.55
5	142986	26.71	36.55
5	143543	26.81	36.55
5	144100	26.91	36.55
5	144665	27.01	36.55
5	145222	27.11	36.55
5	145779	27.21	36.55
5	146336	27.31	36.55
5	146893	27.41	36.55
5	147450	27.51	36.55
5	148007	27.61	36.55
5	148564	27.71	36.55
5	149121	27.81	36.55
5	149678	27.91	36.55
5	150243	28.01	36.55
5	150800	28.11	36.55
5	151357	28.21	36.55
5	151914	28.31	36.55
5	152471	28.41	36.55
5	153028	28.51	36.55
5	153585	28.61	36.55
5	154142	28.71	36.55
5	154699	28.81	36.55
5	155256	28.91	36.55
5	155821	29.01	36.55
5	156378	29.11	36.55
5	156935	29.21	36.55
5	157492	29.31	36.55
5	158049	29.41	36.55
5	158606	29.51	36.55
5	159163	29.61	36.55
5	159720	29.71	36.55
5	160277	29.81	36.55
5	160834	29.91	36.55
5	161399	30.01	36.55
5	161956	30.11	36.55
5	162513	30.21	36.55
5	163070	30.31	36.55
5	163627	30.41	36.55
5	164184	30.51	36.55
5	164741	30.61	36.55
5	165298	30.71	36.55
5	165855	30.81	36.55
5	166412	30.91	36.55
5	166977	31.01	36.55
5	167534	31.11	36.55
5	168091	31.21	36.55
5	168648	31.31	36.55
5	169205	31.41	36.55
5	169762	31.51	36.55
5	170319	31.61	36.55
5	170876	31.71	36.55
5	171433	31.81	36.55
5	171990	31.91	36.55
5	172555	32.01	36.55
5	173112	32.11	36.55
5	173669	32.21	36.55
5	174226	32.31	36.55
5	174783	32.41	36.55
5	175340	32.51	36.55
5	175897	32.61	36.55
5	176454	32.71	36.55
5	177011	32.81	36.55
5	177568	32.91	36.55
5	178133	33.01	36.55
5	178690	33.11	36.55
5	179247	33.21	36.55
5	179804	33.31	36.55
5	180361	33.41	36.55
5	180918	33.51	36.55
5	181475	33.61	36.55
5	182032	33.71	36.55
5	182589	33.81	36.55
5	183146	33.91	36.55
5	183711	34.01	36.55
5	184268	34.11	36.55
5	184825	34.21	36.55
5	185382	34.31	36.55
5	185939	34.41	36.55
5	186496	34.51	36.55
5	187053	34.61	36.55
5	187610	34.71	36.55
5	188167	34.81	36.55
4	232	1.11	100.1155250552
4	788	1.21	102.33774719441
4	1344	1.31	104.55996933634
4	1900	1.41	106.78219148193
4	2456	1.51	109.00441363191
4	3012	1.61	111.22663578678
4	3568	1.71	113.44885794688
4	4124	1.81	115.67108011237
4	4680	1.91	117.8933022833
4	5244	2.01	120.11552445962
4	5800	2.11	122.33774664119
4	6356	2.21	124.55996882778
4	6912	2.31	126.78219101914
4	7468	2.41	129.00441321497
4	8024	2.51	131.22663541492
4	8580	2.61	133.44885761867
4	9136	2.71	135.67107982586
4	9692	2.81	137.89330203614
4	10248	2.91	140.11552424917
4	10812	3.01	142.33774646463
4	11368	3.11	144.55996868219
4	11924	3.21	146.78219090157
4	12480	3.31	149.00441312248
4	13036	3.41	151.22663534468
4	13592	3.51	153.44885756794
4	14148	3.61	155.67107979204
4	14704	3.71	157.8933020168
4	15260	3.81	160.11552424206
4	15816	3.91	162.33774646767
4	16380	4.01	164.55996869351
4	16936	4.11	166.78219091948
4	17492	4.21	169.00441314547
4	18048	4.31	171.22663537143
4	18604	4.41	173.44885759729
4	19160	4.51	175.671079823
4	19716	4.61	177.89330204852
4	20272	4.71	180.11552427384
4	20828	4.81	182.33774649893
4	21384	4.91	184.55996872378
4	21949	5.01	186.78219094839
4	22506	5.11	189.00441453805
4	23063	5.21	191.22686462917
4	23620	5.31	193.45031481345
4	24177	5.41	195.67598971854
4	24734	5.51	197.90543932817
4	25291	5.61	200.14039850479
4	25848	5.71	202.38255273296
4	26405	5.81	204.63330405312
4	26962	5.91	206.8938027586
4	27527	6.01	209.16499249054
4	28084	6.11	211.44764736337
4	28641	6.21	213.74240242054
4	29198	6.31	216.04977861886
4	29755	6.41	218.37020332437
4	30312	6.51	220.7040270944
4	30869	6.61	223.05150767886
4	31426	6.71	225.41259864481
4	31983	6.81	227.78677347571
4	32540	6.91	230.17304339523
4	33105	7.01	232.56999369055
4	33662	7.11	234.97582724719
4	34219	7.21	237.3884141392
4	34776	7.31	239.80534610723
4	35333	7.41	242.22399521433
4	35890	7.51	244.64164853324
4	36447	7.61	247.05580825762
4	37004	7.71	249.46440724217
4	37561	7.81	251.86574970774
4	38118	7.91	254.2584445248
4	38683	8.01	256.64135048262
4	39240	8.11	259.01353139089
4	39797	8.21	261.3742192475
4	40354	8.31	263.72278402321
4	40911	8.41	266.05870887462
4	41468	8.51	268.38156981012
4	42025	8.61	270.6910190089
4	42582	8.71	272.98677113678
4	43139	8.81	275.26859212031
4	43696	8.91	277.53628993777
4	44261	9.01	279.78970706446
4	44818	9.11	282.02871427523
4	45375	9.21	284.2532055605
4	45932	9.31	286.46309395544
4	46489	9.41	288.65830811864
4	47046	9.51	290.83879178807
4	47603	9.61	293.00474026412
4	48160	9.71	295.15701486811
4	48717	9.81	297.29710736244
4	49274	9.91	299.42703486016
4	49839	10.01	301.54923520076
4	50396	10.11	303.6664641011
4	50953	10.21	305.78169432041
4	51510	10.31	307.89785407263
4	52067	10.41	310.0174646669
4	52624	10.51	312.14260092908
4	53181	10.61	314.27496493904
4	53738	10.71	316.4159529951
4	54295	10.81	318.56671054823
4	54852	10.91	320.72817726716
4	55417	11.01	322.90112400755
4	55974	11.11	325.08618313954
4	56531	11.21	327.28387342687
4	57088	11.31	329.49462043653
4	57645	11.41	331.71877328165
4	58202	11.51	333.9566183566
4	58759	11.61	336.20839060451
4	59316	11.71	338.47428276059
4	59873	11.81	340.75445293483
4	60430	11.91	343.04901603308
4	60995	12.01	345.35776702558
4	61552	12.11	347.67986059636
4	62109	12.21	350.01386764407
4	62666	12.31	352.3578622781
4	63223	12.41	354.7095106097
4	63780	12.51	357.06615997526
4	64337	12.61	359.42492816659
4	64894	12.71	361.78292643456
4	65451	12.81	364.13760900473
4	66008	12.91	366.48687677234
4	66573	13.01	368.82900774039
4	67130	13.11	371.16258927155
4	67687	13.21	373.48646251118
4	68244	13.31	375.79967679486
4	68801	13.41	378.10145224665
4	69358	13.51	380.39114909665
4	69915	13.61	382.66824251069
4	70472	13.71	384.93230194197
4	71029	13.81	387.18297419216
4	71586	13.91	389.41996951559
4	72151	14.01	391.64305021991
4	72708	14.11	393.8520213146
4	73265	14.21	396.04672283951
4	73822	14.31	398.22702357161
4	74379	14.41	400.39281664336
4	74936	14.51	402.54416859262
4	75493	14.61	404.68169472541
4	76050	14.71	406.80663877634
4	76607	14.81	408.92078656276
4	77164	14.91	411.02637156888
4	77729	15.01	413.12598039678
4	78286	15.11	415.22245896485
4	78843	15.21	417.31875014683
4	79400	15.31	419.41756309595
4	79957	15.41	421.52113954795
4	80514	15.51	423.63131850694
4	81071	15.61	425.74960859683
4	81628	15.71	427.87724741465
4	82185	15.81	430.01525022105
4	82742	15.91	432.16444988335
4	83307	16.01	434.32552964286
4	83864	16.11	436.49904999542
4	84421	16.21	438.68547074283
4	84978	16.31	440.88516908274
4	85535	16.41	443.09845444858
4	86092	16.51	445.32558068355
4	86649	16.61	447.56675602747
4	87206	16.71	449.82215130953
4	87763	16.81	452.09190666919
4	88320	16.91	454.37613605511
4	88885	17.01	456.67474296331
4	89442	17.11	458.98702902353
4	89999	17.21	461.31168057453
4	90556	17.31	463.64685831946
4	91113	17.41	465.9902897463
4	91670	17.51	468.33936178045
4	92227	17.61	470.69121295452
4	92784	17.71	473.04291762342
4	93341	17.81	475.39182352298
4	93898	17.91	477.73573868138
4	94463	18.01	480.07286491825
4	95020	18.11	482.40172709937
4	95577	18.21	484.72111510092
4	96134	18.31	487.03003619985
4	96691	18.41	489.32767601753
4	97248	18.51	491.61336647979
4	97805	18.61	493.88655953316
4	98362	18.71	496.14680558288
4	98919	18.81	498.39373580468
4	99476	18.91	500.62704763418
4	100041	19.01	502.8464928632
4	100598	19.11	505.05186787459
4	101155	19.21	507.24300563137
4	101712	19.31	509.41976910504
4	102269	19.41	511.58204680321
4	102826	19.51	513.72992389181
4	103383	19.61	515.8640679078
4	103940	19.71	517.98576658536
4	104497	19.81	520.09683938422
4	105054	19.91	522.19954433101
4	105619	20.01	524.29648466497
4	106176	20.11	526.39051606437
4	106733	20.21	528.48457052116
4	107290	20.31	530.58132133148
4	107847	20.41	532.68297886633
4	108404	20.51	534.79135639981
4	108961	20.61	536.90794144824
4	109518	20.71	539.03395429312
4	110075	20.81	541.17039599027
4	110632	20.91	543.31808775417
4	111197	21.01	545.4777032667
4	111754	21.11	547.64979518164
4	112311	21.21	549.83481686759
4	112868	21.31	552.03314024472
4	113425	21.41	554.24507041708
4	113982	21.51	556.47085767629
4	114539	21.61	558.71070734863
4	115096	21.71	560.96478787318
4	115653	21.81	563.23323742864
4	116210	21.91	565.51616842103
4	116775	22.01	567.81349155814
4	117332	22.11	570.12452788024
4	117889	22.21	572.44798002711
4	118446	22.31	574.78202117168
4	119003	22.41	577.12438790501
4	119560	22.51	579.47247333051
4	120117	22.61	581.82341961371
4	120674	22.71	584.17429710729
4	121231	22.81	586.52244030619
4	121788	22.91	588.86564565561
4	122353	23.01	591.2021054731
4	122910	23.11	593.53033682943
4	123467	23.21	595.84912320614
4	124024	23.31	598.15746663437
4	124581	23.41	600.45454843207
4	125138	23.51	602.73969699481
4	125695	23.61	605.01236137304
4	126252	23.71	607.27208959622
4	126809	23.81	609.51851089111
4	127366	23.91	611.75132109449
4	127931	24.01	613.97027068658
4	128488	24.11	616.17515497428
4	129045	24.21	618.36580603792
4	129602	24.31	620.54208612491
4	130159	24.41	622.70388316767
4	130716	24.51	624.8512849268
4	131273	24.61	626.98496612291
4	131830	24.71	629.1062205439
4	132387	24.81	631.21687228266
4	132944	24.91	633.31918275064
4	133509	25.01	635.41575748701
4	134066	25.11	637.50945352593
4	134623	25.21	639.60320138461
4	135180	25.31	641.69966945914
4	135737	25.41	643.80106383362
4	136294	25.51	645.90919426538
4	136851	25.61	648.02554538579
4	137408	25.71	650.15133510965
4	137965	25.81	652.28756255132
4	138522	25.91	654.43504733253
4	139087	26.01	656.59446182861
4	139644	26.11	658.7663576215
4	140201	26.21	660.95118720052
4	140758	26.31	663.14932176448
4	141315	26.41	665.36106582574
4	141872	26.51	667.58666919047
4	142429	26.61	669.82633678673
4	142986	26.71	672.08023672693
4	143543	26.81	674.34850692177
4	144100	26.91	676.63125956442
4	144665	27.01	678.92840632589
4	145222	27.11	681.23927091241
4	145779	27.21	683.56255821039
4	146336	27.31	685.89644311226
4	146893	27.41	688.2386634653
4	147450	27.51	690.5866132266
4	148007	27.61	692.937435065
4	148564	27.71	695.28819878608
4	149121	27.81	697.63623706665
4	149678	27.91	699.97934476123
4	150243	28.01	702.31571288246
4	150800	28.11	704.64385743065
4	151357	28.21	706.96256100919
4	151914	28.31	709.27082492881
4	152471	28.41	711.5678299165
4	153028	28.51	713.852903883
4	153585	28.61	716.12549548107
4	154142	28.71	718.3851524139
4	154699	28.81	720.6315036406
4	155256	28.91	722.86424477839
4	155821	29.01	725.08312612738
4	156378	29.11	727.2879428467
4	156935	29.21	729.47852689547
4	157492	29.31	731.65474042164
4	158049	29.41	733.81647127869
4	158606	29.51	735.96380758465
4	159163	29.61	738.09742504949
4	159720	29.71	740.21861829484
4	160277	29.81	742.32921205171
4	160834	29.91	744.43146819773
4	161399	30.01	746.52799258887
4	161956	30.11	748.62164244609
4	162513	30.21	750.71534808358
4	163070	30.31	752.81177722269
4	163627	30.41	754.91313535724
4	164184	30.51	757.0212317603
4	164741	30.61	759.137550666
4	165298	30.71	761.26330966325
4	165855	30.81	763.39950759906
4	166412	30.91	765.54696387587
4	166977	31.01	767.70635068908
4	167534	31.11	769.87821947305
4	168091	31.21	772.063022596
4	168648	31.31	774.26113115746
4	169205	31.41	776.47284958828
4	169762	31.51	778.69842762778
4	170319	31.61	780.93807014922
4	170876	31.71	783.19194521999
4	171433	31.81	785.46019071392
4	171990	31.91	787.74291879484
4	172555	32.01	790.04004126645
4	173112	32.11	792.35088220209
4	173669	32.21	794.6741467976
4	174226	32.31	797.00801018221
4	174783	32.41	799.3502103762
4	175340	32.51	801.69814145424
4	175897	32.61	804.04894615446
4	176454	32.71	806.39969420713
4	177011	32.81	808.74771803864
4	177568	32.91	811.09081228446
4	178133	33.01	813.42716777754
4	178690	33.11	815.75530037075
4	179247	33.21	818.07399254655
4	179804	33.31	820.38224551646
4	180361	33.41	822.67923992606
4	180918	33.51	824.96430361937
4	181475	33.61	827.23688519433
4	182032	33.71	829.49653230924
4	182589	33.81	831.74287388633
4	183146	33.91	833.97560551258
4	183711	34.01	836.19447746331
4	184268	34.11	838.39928487727
4	184825	34.21	840.58985969692
4	185382	34.31	842.76606405651
4	185939	34.41	844.92778579862
4	186496	34.51	847.07511309053
4	187053	34.61	849.20872177846
4	187610	34.71	851.32990659885
4	188167	34.81	853.44049237059
3	232	1.11	22.222221380388
3	788	1.21	22.222221400033
3	1344	1.31	22.222221430895
3	1900	1.41	22.222221470405
3	2456	1.51	22.222221516302
3	3012	1.61	22.222221566615
3	3568	1.71	22.222221619648
3	4124	1.81	22.222221673961
3	4680	1.91	22.22222172835
3	5244	2.01	22.222221781827
3	5800	2.11	22.222221833594
3	6356	2.21	22.222221883033
3	6912	2.31	22.222221929673
3	7468	2.41	22.222221973181
3	8024	2.51	22.22222201334
3	8580	2.61	22.22222205003
3	9136	2.71	22.222222083218
3	9692	2.81	22.222222112937
3	10248	2.91	22.222222139276
3	10812	3.01	22.222222162372
3	11368	3.11	22.222222182391
3	11924	3.21	22.222222199529
3	12480	3.31	22.222222213995
3	13036	3.41	22.222222226009
3	13592	3.51	22.222222235797
3	14148	3.61	22.222222243584
3	14704	3.71	22.222222249588
3	15260	3.81	22.222222254023
3	15816	3.91	22.22222225709
3	16380	4.01	22.222222258982
3	16936	4.11	22.222222259874
3	17492	4.21	22.22222225993
3	18048	4.31	22.2222222593
3	18604	4.41	22.222222258118
3	19160	4.51	22.222222256505
3	19716	4.61	22.222222254566
3	20272	4.71	22.222222252396
3	20828	4.81	22.222222250075
3	21384	4.91	22.222222247671
3	21949	5.01	22.222222245242
3	22506	5.11	22.222290507125
3	23063	5.21	22.226504077641
3	23620	5.31	22.240220338524
3	24177	5.41	22.267500757653
3	24734	5.51	22.311166408855
3	25291	5.61	22.372508246834
3	25848	5.71	22.449772173803
3	26405	5.81	22.540103259952
3	26962	5.91	22.641153967919
3	27527	6.01	22.750998499419
3	28084	6.11	22.868057029105
3	28641	6.21	22.991033549938
3	29198	6.31	23.118864884746
3	29755	6.41	23.250678857945
3	30312	6.51	23.385758398132
3	30869	6.61	23.522833432233
3	31426	6.71	23.657796347927
3	31983	6.81	23.785829581157
3	32540	6.91	23.902426182221
3	33105	7.01	24.003469344582
3	33662	7.11	24.085300499944
3	34219	7.21	24.144775797594
3	34776	7.31	24.179310887614
3	35333	7.41	24.18693697487
3	35890	7.51	24.167648012512
3	36447	7.61	24.124876590017
3	37004	7.71	24.062841371271
3	37561	7.81	23.985003130021
3	38118	7.91	23.894200906128
3	38683	8.01	23.792763701114
3	39240	8.11	23.682602107418
3	39797	8.21	23.565283476299
3	40354	8.31	23.442093581698
3	40911	8.41	23.314087206082
3	41468	8.51	23.182129638453
3	42025	8.61	23.046930717174
3	42582	8.71	22.90907275694
3	43139	8.81	22.769033458618
3	43696	8.91	22.627204703306
3	44261	9.01	22.483907969993
3	44818	9.11	22.339406983423
3	45375	9.21	22.193918089742
3	45932	9.31	22.047618768141
3	46489	9.41	21.900654613374
3	47046	9.51	21.753242751854
3	47603	9.61	21.609901385757
3	48160	9.71	21.477532883517
3	48717	9.81	21.362073971413
3	49274	9.91	21.268410541013
3	49839	10.01	21.200386497448
3	50396	10.11	21.160826131916
3	50953	10.21	21.151517345739
3	51510	10.31	21.170320646314
3	52067	10.41	21.212693656992
3	52624	10.51	21.274402039281
3	53181	10.61	21.351972160799
3	53738	10.71	21.442554433126
3	54295	10.81	21.543811201247
3	54852	10.91	21.653824773844
3	55417	11.01	21.771021976106
3	55974	11.11	21.894112256751
3	56531	11.21	22.022036914228
3	57088	11.31	22.15392744452
3	57645	11.41	22.289071371833
3	58202	11.51	22.426884217862
3	58759	11.61	22.566886506821
3	59316	11.71	22.708684901566
3	59873	11.81	22.851956728639
3	60430	11.91	22.996030636022
3	60995	12.01	23.135871741664
3	61552	12.11	23.265091831195
3	62109	12.21	23.37815370659
3	62666	12.31	23.470398479481
3	63223	12.41	23.538058615042
3	63780	12.51	23.578257676094
3	64337	12.61	23.589039899577
3	64894	12.71	23.571771817424
3	65451	12.81	23.530658220569
3	66008	12.91	23.469982996268
3	66573	13.01	23.39326042415
3	67130	13.11	23.303373437532
3	67687	13.21	23.20268704586
3	68244	13.31	23.093141380613
3	68801	13.41	22.97632802535
3	69358	13.51	22.853552632938
3	69915	13.61	22.725886293488
3	70472	13.71	22.594207673951
3	71029	13.81	22.459237587264
3	71586	13.91	22.321567351098
3	72151	14.01	22.181682051897
3	72708	14.11	22.039979629502
3	73265	14.21	21.896786533182
3	73822	14.31	21.752370565044
3	74379	14.41	21.606990468916
3	74936	14.51	21.46377531614
3	75493	14.61	21.329003640752
3	76050	14.71	21.208703411767
3	76607	14.81	21.107966374326
3	77164	14.91	21.030937646541
3	77729	15.01	20.980819133086
3	78286	15.11	20.959864153028
3	78843	15.21	20.968113302143
3	79400	15.31	21.001828232614
3	79957	15.41	21.056433973525
3	80514	15.51	21.128177455263
3	81071	15.61	21.213979853553
3	81628	15.71	21.311315460134
3	82185	15.81	21.418112314529
3	82742	15.91	21.532670687482
3	83307	16.01	21.65359620899
3	83864	16.11	21.779745009989
3	84421	16.21	21.910178719438
3	84978	16.31	22.04412754625
3	85535	16.41	22.180959993615
3	86092	16.51	22.320158014196
3	86649	16.61	22.461296628745
3	87206	16.71	22.604027206256
3	87763	16.81	22.748063747876
3	88320	16.91	22.893121062247
3	88885	17.01	23.035415892366
3	89442	17.11	23.168450652444
3	89999	17.21	23.28637522879
3	90556	17.31	23.384255235879
3	91113	17.41	23.458083279214
3	91670	17.51	23.504776599185
3	92227	17.61	23.522191087294
3	92784	17.71	23.510795234811
3	93341	17.81	23.474498911582
3	93898	17.91	23.417775529511
3	94463	18.01	23.344294844447
3	95020	18.11	23.257067334362
3	95577	18.21	23.158562639743
3	96134	18.31	23.050806725964
3	96691	18.41	22.935461590275
3	97248	18.51	22.813890649294
3	97805	18.61	22.687212379529
3	98362	18.71	22.556344321276
3	98919	18.81	22.422039177162
3	99476	18.91	22.284914425505
3	100041	19.01	22.145476613593
3	100598	19.11	22.004141286635
3	101155	19.21	21.861249336433
3	101712	19.31	21.717080413001
3	102269	19.41	21.571909863106
3	102826	19.51	21.429278340793
3	103383	19.61	21.295604178514
3	103940	19.71	21.176803340552
3	104497	19.81	21.077868481133
3	105054	19.91	21.002857998561
3	105619	20.01	20.954898781713
3	106176	20.11	20.936175392548
3	106733	20.21	20.946407816827
3	107290	20.31	20.981749723707
3	107847	20.41	21.03769015195
3	108404	20.51	21.110528542171
3	108961	20.61	21.197229146774
3	109518	20.71	21.295301595376
3	110075	20.81	21.402702916871
3	110632	20.91	21.517757163382
3	111197	21.01	21.639089473919
3	111754	21.11	21.765571983607
3	112311	21.21	21.896279450413
3	112868	21.31	22.030452853606
3	113425	21.41	22.167469531823
3	113982	21.51	22.306818685871
3	114539	21.61	22.448081282503
3	115096	21.71	22.590913568504
3	115653	21.81	22.735033546511
3	116210	21.91	22.880162447437
3	116775	22.01	23.022670267421
3	117332	22.11	23.156108357089
3	117889	22.21	23.274585173836
3	118446	22.31	23.373129675149
3	119003	22.41	23.447702381669
3	119560	22.51	23.495192775121
3	120117	22.61	23.513431301619
3	120674	22.71	23.502767871627
3	121231	22.81	23.467072389944
3	121788	22.91	23.410841907214
3	122353	23.01	23.337765571286
3	122910	23.11	23.250869768327
3	123467	23.21	23.152637189085
3	124024	23.31	23.045104504693
3	124581	23.41	22.929942494852
3	125138	23.51	22.80852178085
3	125695	23.61	22.68196674953
3	126252	23.71	22.551199789728
3	126809	23.81	22.416977581555
3	127366	23.91	22.279920866256
3	127931	24.01	22.140538867856
3	128488	24.11	21.999249327416
3	129045	24.21	21.856394938108
3	129602	24.31	21.71225682769
3	130159	24.41	21.567112496496
3	130716	24.51	21.424558793937
3	131273	24.61	21.291033120082
3	131830	24.71	21.172436080201
3	132387	24.81	21.073746736753
3	132944	24.91	20.999011589812
3	133509	25.01	20.951347232722
3	134066	25.11	20.932928788829
3	134623	25.21	20.943432285463
3	135180	25.31	20.978996566089
3	135737	25.41	21.035119418254
3	136294	25.51	21.108107459632
3	136851	25.61	21.194930830305
3	137408	25.71	21.293103989846
3	137965	25.81	21.400587929387
3	138522	25.91	21.515709951472
3	139087	26.01	21.637097861586
3	139644	26.11	21.763625982293
3	140201	26.21	21.89437086602
3	140758	26.31	22.028574964121
3	141315	26.41	22.165616822853
3	141872	26.51	22.304986633695
3	142429	26.61	22.446266176092
3	142986	26.71	22.589112363523
3	143543	26.81	22.733243745544
3	144100	26.91	22.878382351008
3	144665	27.01	23.02091902685
3	145222	27.11	23.154412198376
3	145779	27.21	23.272964623492
3	146336	27.31	23.371600215963
3	146893	27.41	23.446275081122
3	147450	27.51	23.4938748801
3	148007	27.61	23.512226556393
3	148564	27.71	23.501663708253
3	149121	27.81	23.46605073872
3	149678	27.91	23.409887944692
3	150243	28.01	23.336867137076
3	150800	28.11	23.250016886674
3	151357	28.21	23.151821676394
3	151914	28.31	23.044319647566
3	152471	28.41	22.929182785965
3	153028	28.51	22.80778270228
3	153585	28.61	22.681244595004
3	154142	28.71	22.550491518813
3	154699	28.81	22.416280700038
3	155256	28.91	22.279233328011
3	155821	29.01	22.139858994348
3	156378	29.11	21.998575741663
3	156935	29.21	21.855726510503
3	157492	29.31	21.711592631564
3	158049	29.41	21.566451901273
3	158606	29.51	21.42390890677
3	159163	29.61	21.290403673535
3	159720	29.71	21.171834691746
3	160277	29.81	21.073179152124
3	160834	29.91	20.998481916211
3	161399	30.01	20.950858159518
3	161956	30.11	20.932481705563
3	162513	30.21	20.943022528176
3	163070	30.31	20.978617429104
3	163627	30.41	21.034765400583
3	164184	30.51	21.107774048547
3	164741	30.61	21.194614323799
3	165298	30.71	21.292801350981
3	165855	30.81	21.400296666818
3	166412	30.91	21.515428021429
3	166977	31.01	21.636823587464
3	167534	31.11	21.763357988693
3	168091	31.21	21.894108024635
3	168648	31.31	22.028316349348
3	169205	31.41	22.165361675373
3	169762	31.51	22.304734330603
3	170319	31.61	22.446016206389
3	170876	31.71	22.588864308011
3	171433	31.81	22.732997260337
3	171990	31.91	22.878137202098
3	172555	32.01	23.020677851725
3	173112	32.11	23.154178608822
3	173669	32.21	23.272741446377
3	174226	32.31	23.371389583548
3	174783	32.41	23.446078517603
3	175340	32.51	23.493693383512
3	175897	32.61	23.512060642398
3	176454	32.71	23.501511646042
3	177011	32.81	23.465910039798
3	177568	32.91	23.409756567623
3	178133	33.01	23.336743407174
3	178690	33.11	23.249899430112
3	179247	33.21	23.151709366157
3	179804	33.31	23.044211559107
3	180361	33.41	22.929078160835
3	180918	33.51	22.807680918285
3	181475	33.61	22.681145141731
3	182032	33.71	22.550393977543
3	182589	33.81	22.416184727275
3	183146	33.91	22.279138641972
3	183711	34.01	22.139765363871
3	184268	34.11	21.998482977113
3	184825	34.21	21.855634456316
3	185382	34.31	21.711501160121
3	185939	34.41	21.566360925734
3	186496	34.51	21.423819405916
3	187053	34.61	21.29031698771
3	187610	34.71	21.17175187001
3	188167	34.81	21.073100985766
1	232	1.11	0
1	788	1.21	0
1	1344	1.31	0
1	1900	1.41	0
1	2456	1.51	0
1	3012	1.61	0
1	3568	1.71	0
1	4124	1.81	0
1	4680	1.91	0
1	5244	2.01	0
1	5800	2.11	0
1	6356	2.21	0
1	6912	2.31	0
1	7468	2.41	0
1	8024	2.51	0
1	8580	2.61	0
1	9136	2.71	0
1	9692	2.81	0
1	10248	2.91	0
1	10812	3.01	0
1	11368	3.11	0
1	11924	3.21	0
1	12480	3.31	0
1	13036	3.41	0
1	13592	3.51	0
1	14148	3.61	0
1	14704	3.71	0
1	15260	3.81	0
1	15816	3.91	0
1	16380	4.01	0
1	16936	4.11	0
1	17492	4.21	0
1	18048	4.31	0
1	18604	4.41	0
1	19160	4.51	0
1	19716	4.61	0
1	20272	4.71	0
1	20828	4.81	0
1	21384	4.91	0
1	21949	5.01	0
1	22506	5.11	0
1	23063	5.21	0
1	23620	5.31	0
1	24177	5.41	0
1	24734	5.51	0
1	25291	5.61	0
1	25848	5.71	0
1	26405	5.81	0
1	26962	5.91	0
1	27527	6.01	0
1	28084	6.11	0
1	28641	6.21	0
1	29198	6.31	0
1	29755	6.41	0
1	30312	6.51	0
1	30869	6.61	0
1	31426	6.71	0
1	31983	6.81	0
1	32540	6.91	0
1	33105	7.01	0
1	33662	7.11	0
1	34219	7.21	0
1	34776	7.31	0
1	35333	7.41	0
1	35890	7.51	0
1	36447	7.61	0
1	37004	7.71	0
1	37561	7.81	0
1	38118	7.91	0
1	38683	8.01	0
1	39240	8.11	0
1	39797	8.21	0
1	40354	8.31	0
1	40911	8.41	0
1	41468	8.51	0
1	42025	8.61	0
1	42582	8.71	0
1	43139	8.81	0
1	43696	8.91	0
1	44261	9.01	0
1	44818	9.11	0
1	45375	9.21	0
1	45932	9.31	0
1	46489	9.41	0
1	47046	9.51	0
1	47603	9.61	0
1	48160	9.71	0
1	48717	9.81	0
1	49274	9.91	0
1	49839	10.01	0
1	50396	10.11	0
1	50953	10.21	0
1	51510	10.31	0
1	52067	10.41	0
1	52624	10.51	0
1	53181	10.61	0
1	53738	10.71	0
1	54295	10.81	0
1	54852	10.91	0
1	55417	11.01	0
1	55974	11.11	0
1	56531	11.21	0
1	57088	11.31	0
1	57645	11.41	0
1	58202	11.51	0
1	58759	11.61	0
1	59316	11.71	0
1	59873	11.81	0
1	60430	11.91	0
1	60995	12.01	0
1	61552	12.11	0
1	62109	12.21	0
1	62666	12.31	0
1	63223	12.41	0
1	63780	12.51	0
1	64337	12.61	0
1	64894	12.71	0
1	65451	12.81	0
1	66008	12.91	0
1	66573	13.01	0
1	67130	13.11	0
1	67687	13.21	0
1	68244	13.31	0
1	68801	13.41	0
1	69358	13.51	0
1	69915	13.61	0
1	70472	13.71	0
1	71029	13.81	0
1	71586	13.91	0
1	72151	14.01	0
1	72708	14.11	0
1	73265	14.21	0
1	73822	14.31	0
1	74379	14.41	0
1	74936	14.51	0
1	75493	14.61	0
1	76050	14.71	0
1	76607	14.81	0
1	77164	14.91	0
1	77729	15.01	0
1	78286	15.11	0
1	78843	15.21	0
1	79400	15.31	0
1	79957	15.41	0
1	80514	15.51	0
1	81071	15.61	0
1	81628	15.71	0
1	82185	15.81	0
1	82742	15.91	0
1	83307	16.01	0
1	83864	16.11	0
1	84421	16.21	0
1	84978	16.31	0
1	85535	16.41	0
1	86092	16.51	0
1	86649	16.61	0
1	87206	16.71	0
1	87763	16.81	0
1	88320	16.91	0
1	88885	17.01	0
1	89442	17.11	0
1	89999	17.21	0
1	90556	17.31	0
1	91113	17.41	0
1	91670	17.51	0
1	92227	17.61	0
1	92784	17.71	0
1	93341	17.81	0
1	93898	17.91	0
1	94463	18.01	0
1	95020	18.11	0
1	95577	18.21	0
1	96134	18.31	0
1	96691	18.41	0
1	97248	18.51	0
1	97805	18.61	0
1	98362	18.71	0
1	98919	18.81	0
1	99476	18.91	0
1	100041	19.01	0
1	100598	19.11	0
1	101155	19.21	0
1	101712	19.31	0
1	102269	19.41	0
1	102826	19.51	0
1	103383	19.61	0
1	103940	19.71	0
1	104497	19.81	0
1	105054	19.91	0
1	105619	20.01	0
1	106176	20.11	0
1	106733	20.21	0
1	107290	20.31	0
1	107847	20.41	0
1	108404	20.51	0
1	108961	20.61	0
1	109518	20.71	0
1	110075	20.81	0
1	110632	20.91	0
1	111197	21.01	0
1	111754	21.11	0
1	112311	21.21	0
1	112868	21.31	0
1	113425	21.41	0
1	113982	21.51	0
1	114539	21.61	0
1	115096	21.71	0
1	115653	21.81	0
1	116210	21.91	0
1	116775	22.01	0
1	117332	22.11	0
1	117889	22.21	0
1	118446	22.31	0
1	119003	22.41	0
1	119560	22.51	0
1	120117	22.61	0
1	120674	22.71	0
1	121231	22.81	0
1	121788	22.91	0
1	122353	23.01	0
1	122910	23.11	0
1	123467	23.21	0
1	124024	23.31	0
1	124581	23.41	0
1	125138	23.51	0
1	125695	23.61	0
1	126252	23.71	0
1	126809	23.81	0
1	127366	23.91	0
1	127931	24.01	0
1	128488	24.11	0
1	129045	24.21	0
1	129602	24.31	0
1	130159	24.41	0
1	130716	24.51	0
1	131273	24.61	0
1	131830	24.71	0
1	132387	24.81	0
1	132944	24.91	0
1	133509	25.01	0
1	134066	25.11	0
1	134623	25.21	0
1	135180	25.31	0
1	135737	25.41	0
1	136294	25.51	0
1	136851	25.61	0
1	137408	25.71	0
1	137965	25.81	0
1	138522	25.91	0
1	139087	26.01	0
1	139644	26.11	0
1	140201	26.21	0
1	140758	26.31	0
1	141315	26.41	0
1	141872	26.51	0
1	142429	26.61	0
1	142986	26.71	0
1	143543	26.81	0
1	144100	26.91	0
1	144665	27.01	0
1	145222	27.11	0
1	145779	27.21	0
1	146336	27.31	0
1	146893	27.41	0
1	147450	27.51	0
1	148007	27.61	0
1	148564	27.71	0
1	149121	27.81	0
1	149678	27.91	0
1	150243	28.01	0
1	150800	28.11	0
1	151357	28.21	0
1	151914	28.31	0
1	152471	28.41	0
1	153028	28.51	0
1	153585	28.61	0
1	154142	28.71	0
1	154699	28.81	0
1	155256	28.91	0
1	155821	29.01	0
1	156378	29.11	0
1	156935	29.21	0
1	157492	29.31	0
1	158049	29.41	0
1	158606	29.51	0
1	159163	29.61	0
1	159720	29.71	0
1	160277	29.81	0
1	160834	29.91	0
1	161399	30.01	0
1	161956	30.11	0
1	162513	30.21	0
1	163070	30.31	0
1	163627	30.41	0
1	164184	30.51	0
1	164741	30.61	0
1	165298	30.71	0
1	165855	30.81	0
1	166412	30.91	0
1	166977	31.01	0
1	167534	31.11	0
1	168091	31.21	0
1	168648	31.31	0
1	169205	31.41	0
1	169762	31.51	0
1	170319	31.61	0
1	170876	31.71	0
1	171433	31.81	0
1	171990	31.91	0
1	172555	32.01	0
1	173112	32.11	0
1	173669	32.21	0
1	174226	32.31	0
1	174783	32.41	0
1	175340	32.51	0
1	175897	32.61	0
1	176454	32.71	0
1	177011	32.81	0
1	177568	32.91	0
1	178133	33.01	0
1	178690	33.11	0
1	179247	33.21	0
1	179804	33.31	0
1	180361	33.41	0
1	180918	33.51	0
1	181475	33.61	0
1	182032	33.71	0
1	182589	33.81	0
1	183146	33.91	0
1	183711	34.01	0
1	184268	34.11	0
1	184825	34.21	0
1	185382	34.31	0
1	185939	34.41	0
1	186496	34.51	0
1	187053	34.61	0
1	187610	34.71	0
1	188167	34.81	0
0	232	1.11	-1
0	788	1.21	-1
0	1344	1.31	-1
0	1900	1.41	-1
0	2456	1.51	-1
0	3012	1.61	-1
0	3568	1.71	-1
0	4124	1.81	-1
0	4680	1.91	-1
0	5244	2.01	-1
0	5800	2.11	-1
0	6356	2.21	-1
0	6912	2.31	-1
0	7468	2.41	-1
0	8024	2.51	-1
0	8580	2.61	-1
0	9136	2.71	-1
0	9692	2.81	-1
0	10248	2.91	-1
0	10812	3.01	-1
0	11368	3.11	-1
0	11924	3.21	-1
0	12480	3.31	-1
0	13036	3.41	-1
0	13592	3.51	-1
0	14148	3.61	-1
0	14704	3.71	-1
0	15260	3.81	-1
0	15816	3.91	-1
0	16380	4.01	-1
0	16936	4.11	-1
0	17492	4.21	-1
0	18048	4.31	-1
0	18604	4.41	-1
0	19160	4.51	-1
0	19716	4.61	-1
0	20272	4.71	-1
0	20828	4.81	-1
0	21384	4.91	-1
0	21949	5.01	-1
0	22506	5.11	-1
0	23063	5.21	-1
0	23620	5.31	-1
0	24177	5.41	-1
0	24734	5.51	-1
0	25291	5.61	-1
0	25848	5.71	-1
0	26405	5.81	-1
0	26962	5.91	-1
0	27527	6.01	-1
0	28084	6.11	-1
0	28641	6.21	-1
0	29198	6.31	-1
0	29755	6.41	-1
0	30312	6.51	-1
0	30869	6.61	-1
0	31426	6.71	-1
0	31983	6.81	-1
0	32540	6.91	-1
0	33105	7.01	-1
0	33662	7.11	-1
0	34219	7.21	-1
0	34776	7.31	-1
0	35333	7.41	-1
0	35890	7.51	-1
0	36447	7.61	-1
0	37004	7.71	-1
0	37561	7.81	-1
0	38118	7.91	-1
0	38683	8.01	-1
0	39240	8.11	-1
0	39797	8.21	-1
0	40354	8.31	-1
0	40911	8.41	-1
0	41468	8.51	-1
0	42025	8.61	-1
0	42582	8.71	-1
0	43139	8.81	-1
0	43696	8.91	-1
0	44261	9.01	-1
0	44818	9.11	-1
0	45375	9.21	-1
0	45932	9.31	-1
0	46489	9.41	-1
0	47046	9.51	-1
0	47603	9.61	-1
0	48160	9.71	-1
0	48717	9.81	-1
0	49274	9.91	-1
0	49839	10.01	-1
0	50396	10.11	-1
0	50953	10.21	-1
0	51510	10.31	-1
0	52067	10.41	-1
0	52624	10.51	-1
0	53181	10.61	-1
0	53738	10.71	-1
0	54295	10.81	-1
0	54852	10.91	-1
0	55417	11.01	-1
0	55974	11.11	-1
0	56531	11.21	-1
0	57088	11.31	-1
0	57645	11.41	-1
0	58202	11.51	-1
0	58759	11.61	-1
0	59316	11.71	-1
0	59873	11.81	-1
0	60430	11.91	-1
0	60995	12.01	-1
0	61552	12.11	-1
0	62109	12.21	-1
0	62666	12.31	-1
0	63223	12.41	-1
0	63780	12.51	-1
0	64337	12.61	-1
0	64894	12.71	-1
0	65451	12.81	-1
0	66008	12.91	-1
0	66573	13.01	-1
0	67130	13.11	-1
0	67687	13.21	-1
0	68244	13.31	-1
0	68801	13.41	-1
0	69358	13.51	-1
0	69915	13.61	-1
0	70472	13.71	-1
0	71029	13.81	-1
0	71586	13.91	-1
0	72151	14.01	-1
0	72708	14.11	-1
0	73265	14.21	-1
0	73822	14.31	-1
0	74379	14.41	-1
0	74936	14.51	-1
0	75493	14.61	-1
0	76050	14.71	-1
0	76607	14.81	-1
0	77164	14.91	-1
0	77729	15.01	-1
0	78286	15.11	-1
0	78843	15.21	-1
0	79400	15.31	-1
0	79957	15.41	-1
0	80514	15.51	-1
0	81071	15.61	-1
0	81628	15.71	-1
0	82185	15.81	-1
0	82742	15.91	-1
0	83307	16.01	-1
0	83864	16.11	-1
0	84421	16.21	-1
0	84978	16.31	-1
0	85535	16.41	-1
0	86092	16.51	-1
0	86649	16.61	-1
0	87206	16.71	-1
0	87763	16.81	-1
0	88320	16.91	-1
0	88885	17.01	-1
0	89442	17.11	-1
0	89999	17.21	-1
0	90556	17.31	-1
0	91113	17.41	-1
0	91670	17.51	-1
0	92227	17.61	-1
0	92784	17.71	-1
0	93341	17.81	-1
0	93898	17.91	-1
0	94463	18.01	-1
0	95020	18.11	-1
0	95577	18.21	-1
0	96134	18.31	-1
0	96691	18.41	-1
0	97248	18.51	-1
0	97805	18.61	-1
0	98362	18.71	-1
0	98919	18.81	-1
0	99476	18.91	-1
0	100041	19.01	-1
0	100598	19.11	-1
0	101155	19.21	-1
0	101712	19.31	-1
0	102269	19.41	-1
0	102826	19.51	-1
0	103383	19.61	-1
0	103940	19.71	-1
0	104497	19.81	-1
0	105054	19.91	-1
0	105619	20.01	-1
0	106176	20.11	-1
0	106733	20.21	-1
0	107290	20.31	-1
0	107847	20.41	-1
0	108404	20.51	-1
0	108961	20.61	-1
0	109518	20.71	-1
0	110075	20.81	-1
0	110632	20.91	-1
0	111197	21.01	-1
0	111754	21.11	-1
0	112311	21.21	-1
0	112868	21.31	-1
0	113425	21.41	-1
0	113982	21.51	-1
0	114539	21.61	-1
0	115096	21.71	-1
0	115653	21.81	-1
0	116210	21.91	-1
0	116775	22.01	-1
0	117332	22.11	-1
0	117889	22.21	-1
0	118446	22.31	-1
0	119003	22.41	-1
0	119560	22.51	-1
0	120117	22.61	-1
0	120674	22.71	-1
0	121231	22.81	-1
0	121788	22.91	-1
0	122353	23.01	-1
0	122910	23.11	-1
0	123467	23.21	-1
0	124024	23.31	-1
0	124581	23.41	-1
0	125138	23.51	-1
0	125695	23.61	-1
0	126252	23.71	-1
0	126809	23.81	-1
0	127366	23.91	-1
0	127931	24.01	-1
0	128488	24.11	-1
0	129045	24.21	-1
0	129602	24.31	-1
0	130159	24.41	-1
0	130716	24.51	-1
0	131273	24.61	-1
0	131830	24.71	-1
0	132387	24.81	-1
0	132944	24.91	-1
0	133509	25.01	-1
0	134066	25.11	-1
0	134623	25.21	-1
0	135180	25.31	-1
0	135737	25.41	-1
0	136294	25.51	-1
0	136851	25.61	-1
0	137408	25.71	-1
0	137965	25.81	-1
0	138522	25.91	-1
0	139087	26.01	-1
0	139644	26.11	-1
0	140201	26.21	-1
0	140758	26.31	-1
0	141315	26.41	-1
0	141872	26.51	-1
0	142429	26.61	-1
0	142986	26.71	-1
0	143543	26.81	-1
0	144100	26.91	-1
0	144665	27.01	-1
0	145222	27.11	-1
0	145779	27.21	-1
0	146336	27.31	-1
0	146893	27.41	-1
0	147450	27.51	-1
0	148007	27.61	-1
0	148564	27.71	-1
0	149121	27.81	-1
0	149678	27.91	-1
0	150243	28.01	-1
0	150800	28.11	-1
0	151357	28.21	-1
0	151914	28.31	-1
0	152471	28.41	-1
0	153028	28.51	-1
0	153585	28.61	-1
0	154142	28.71	-1
0	154699	28.81	-1
0	155256	28.91	-1
0	155821	29.01	-1
0	156378	29.11	-1
0	156935	29.21	-1
0	157492	29.31	-1
0	158049	29.41	-1
0	158606	29.51	-1
0	159163	29.61	-1
0	159720	29.71	-1
0	160277	29.81	-1
0	160834	29.91	-1
0	161399	30.01	-1
0	161956	30.11	-1
0	162513	30.21	-1
0	163070	30.31	-1
0	163627	30.41	-1
0	164184	30.51	-1
0	164741	30.61	-1
0	165298	30.71	-1
0	165855	30.81	-1
0	166412	30.91	-1
0	166977	31.01	-1
0	167534	31.11	-1
0	168091	31.21	-1
0	168648	31.31	-1
0	169205	31.41	-1
0	169762	31.51	-1
0	170319	31.61	-1
0	170876	31.71	-1
0	171433	31.81	-1
0	171990	31.91	-1
0	172555	32.01	-1
0	173112	32.11	-1
0	173669	32.21	-1
0	174226	32.31	-1
0	174783	32.41	-1
0	175340	32.51	-1
0	175897	32.61	-1
0	176454	32.71	-1
0	177011	32.81	-1
0	177568	32.91	-1
0	178133	33.01	-1
0	178690	33.11	-1
0	179247	33.21	-1
0	179804	33.31	-1
0	180361	33.41	-1
0	180918	33.51	-1
0	181475	33.61	-1
0	182032	33.71	-1
0	182589	33.81	-1
0	183146	33.91	-1
0	183711	34.01	-1
0	184268	34.11	-1
0	184825	34.21	-1
0	185382	34.31	-1
0	185939	34.41	-1
0	186496	34.51	-1
0	187053	34.61	-1
0	187610	34.71	-1
0	188167	34.81	-1
2	232	1.11	0
2	788	1.21	0
2	1344	1.31	0
2	1900	1.41	0
2	2456	1.51	0
2	3012	1.61	0
2	3568	1.71	0
2	4124	1.81	0
2	4680	1.91	0
2	5244	2.01	0
2	5800	2.11	0
2	6356	2.21	0
2	6912	2.31	0
2	7468	2.41	0
2	8024	2.51	0
2	8580	2.61	0
2	9136	2.71	0
2	9692	2.81	0
2	10248	2.91	0
2	10812	3.01	0
2	11368	3.11	0
2	11924	3.21	0
2	12480	3.31	0
2	13036	3.41	0
2	13592	3.51	0
2	14148	3.61	0
2	14704	3.71	0
2	15260	3.81	0
2	15816	3.91	0
2	16380	4.01	0
2	16936	4.11	0
2	17492	4.21	0
2	18048	4.31	0
2	18604	4.41	0
2	19160	4.51	0
2	19716	4.61	0
2	20272	4.71	0
2	20828	4.81	0
2	21384	4.91	0
2	21949	5.01	0
2	22506	5.11	0
2	23063	5.21	0
2	23620	5.31	0
2	24177	5.41	0
2	24734	5.51	0
2	25291	5.61	0
2	25848	5.71	0
2	26405	5.81	0
2	26962	5.91	0
2	27527	6.01	0
2	28084	6.11	0
2	28641	6.21	0
2	29198	6.31	0
2	29755	6.41	0
2	30312	6.51	0
2	30869	6.61	0
2	31426	6.71	0
2	31983	6.81	0
2	32540	6.91	0
2	33105	7.01	0
2	33662	7.11	0
2	34219	7.21	0
2	34776	7.31	0
2	35333	7.41	0
2	35890	7.51	0
2	36447	7.61	0
2	37004	7.71	0
2	37561	7.81	0
2	38118	7.91	0
2	38683	8.01	0
2	39240	8.11	0
2	39797	8.21	0
2	40354	8.31	0
2	40911	8.41	0
2	41468	8.51	0
2	42025	8.61	0
2	42582	8.71	0
2	43139	8.81	0
2	43696	8.91	0
2	44261	9.01	0
2	44818	9.11	0
2	45375	9.21	0
2	45932	9.31	0
2	46489	9.41	0
2	47046	9.51	0
2	47603	9.61	0
2	48160	9.71	0
2	48717	9.81	0
2	49274	9.91	0
2	49839	10.01	0
2	50396	10.11	0
2	50953	10.21	0
2	51510	10.31	0
2	52067	10.41	0
2	52624	10.51	0
2	53181	10.61	0
2	53738	10.71	0
2	54295	10.81	0
2	54852	10.91	0
2	55417	11.01	0
2	55974	11.11	0
2	56531	11.21	0
2	57088	11.31	0
2	57645	11.41	0
2	58202	11.51	0
2	58759	11.61	0
2	59316	11.71	0
2	59873	11.81	0
2	60430	11.91	0
2	60995	12.01	0
2	61552	12.11	0
2	62109	12.21	0
2	62666	12.31	0
2	63223	12.41	0
2	63780	12.51	0
2	64337	12.61	0
2	64894	12.71	0
2	65451	12.81	0
2	66008	12.91	0
2	66573	13.01	0
2	67130	13.11	0
2	67687	13.21	0
2	68244	13.31	0
2	68801	13.41	0
2	69358	13.51	0
2	69915	13.61	0
2	70472	13.71	0
2	71029	13.81	0
2	71586	13.91	0
2	72151	14.01	0
2	72708	14.11	0
2	73265	14.21	0
2	73822	14.31	0
2	74379	14.41	0
2	74936	14.51	0
2	75493	14.61	0
2	76050	14.71	0
2	76607	14.81	0
2	77164	14.91	0
2	77729	15.01	0
2	78286	15.11	0
2	78843	15.21	0
2	79400	15.31	0
2	79957	15.41	0
2	80514	15.51	0
2	81071	15.61	0
2	81628	15.71	0
2	82185	15.81	0
2	82742	15.91	0
2	83307	16.01	0
2	83864	16.11	0
2	84421	16.21	0
2	84978	16.31	0
2	85535	16.41	0
2	86092	16.51	0
2	86649	16.61	0
2	87206	16.71	0
2	87763	16.81	0
2	88320	16.91	0
2	88885	17.01	0
2	89442	17.11	0
2	89999	17.21	0
2	90556	17.31	0
2	91113	17.41	0
2	91670	17.51	0
2	92227	17.61	0
2	92784	17.71	0
2	93341	17.81	0
2	93898	17.91	0
2	94463	18.01	0
2	95020	18.11	0
2	95577	18.21	0
2	96134	18.31	0
2	96691	18.41	0
2	97248	18.51	0
2	97805	18.61	0
2	98362	18.71	0
2	98919	18.81	0
2	99476	18.91	0
2	100041	19.01	0
2	100598	19.11	0
2	101155	19.21	0
2	101712	19.31	0
2	102269	19.41	0
2	102826	19.51	0
2	103383	19.61	0
2	103940	19.71	0
2	104497	19.81	0
2	105054	19.91	0
2	105619	20.01	0
2	106176	20.11	0
2	106733	20.21	0
2	107290	20.31	0
2	107847	20.41	0
2	108404	20.51	0
2	108961	20.61	0
2	109518	20.71	0
2	110075	20.81	0
2	110632	20.91	0
2	111197	21.01	0
2	111754	21.11	0
2	112311	21.21	0
2	112868	21.31	0
2	113425	21.41	0
2	113982	21.51	0
2	114539	21.61	0
2	115096	21.71	0
2	115653	21.81	0
2	116210	21.91	0
2	116775	22.01	0
2	117332	22.11	0
2	117889	22.21	0
2	118446	22.31	0
2	119003	22.41	0
2	119560	22.51	0
2	120117	22.61	0
2	120674	22.71	0
2	121231	22.81	0
2	121788	22.91	0
2	122353	23.01	0
2	122910	23.11	0
2	123467	23.21	0
2	124024	23.31	0
2	124581	23.41	0
2	125138	23.51	0
2	125695	23.61	0
2	126252	23.71	0
2	126809	23.81	0
2	127366	23.91	0
2	127931	24.01	0
2	128488	24.11	0
2	129045	24.21	0
2	129602	24.31	0
2	130159	24.41	0
2	130716	24.51	0
2	131273	24.61	0
2	131830	24.71	0
2	132387	24.81	0
2	132944	24.91	0
2	133509	25.01	0
2	134066	25.11	0
2	134623	25.21	0
2	135180	25.31	0
2	135737	25.41	0
2	136294	25.51	0
2	136851	25.61	0
2	137408	25.71	0
2	137965	25.81	0
2	138522	25.91	0
2	139087	26.01	0
2	139644	26.11	0
2	140201	26.21	0
2	140758	26.31	0
2	141315	26.41	0
2	141872	26.51	0
2	142429	26.61	0
2	142986	26.71	0
2	143543	26.81	0
2	144100	26.91	0
2	144665	27.01	0
2	145222	27.11	0
2	145779	27.21	0
2	146336	27.31	0
2	146893	27.41	0
2	147450	27.51	0
2	148007	27.61	0
2	148564	27.71	0
2	149121	27.81	0
2	149678	27.91	0
2	150243	28.01	0
2	150800	28.11	0
2	151357	28.21	0
2	151914	28.31	0
2	152471	28.41	0
2	153028	28.51	0
2	153585	28.61	0
2	154142	28.71	0
2	154699	28.81	0
2	155256	28.91	0
2	155821	29.01	0
2	156378	29.11	0
2	156935	29.21	0
2	157492	29.31	0
2	158049	29.41	0
2	158606	29.51	0
2	159163	29.61	0
2	159720	29.71	0
2	160277	29.81	0
2	160834	29.91	0
2	161399	30.01	0
2	161956	30.11	0
2	162513	30.21	0
2	163070	30.31	0
2	163627	30.41	0
2	164184	30.51	0
2	164741	30.61	0
2	165298	30.71	0
2	165855	30.81	0
2	166412	30.91	0
2	166977	31.01	0
2	167534	31.11	0
2	168091	31.21	0
2	168648	31.31	0
2	169205	31.41	0
2	169762	31.51	0
2	170319	31.61	0
2	170876	31.71	0
2	171433	31.81	0
2	171990	31.91	0
2	172555	32.01	0
2	173112	32.11	0
2	173669	32.21	0
2	174226	32.31	0
2	174783	32.41	0
2	175340	32.51	0
2	175897	32.61	0
2	176454	32.71	0
2	177011	32.81	0
2	177568	32.91	0
2	178133	33.01	0
2	178690	33.11	0
2	179247	33.21	0
2	179804	33.31	0
2	180361	33.41	0
2	180918	33.51	0
2	181475	33.61	0
2	182032	33.71	0
2	182589	33.81	0
2	183146	33.91	0
2	183711	34.01	0
2	184268	34.11	0
2	184825	34.21	0
2	185382	34.31	0
2	185939	34.41	0
2	186496	34.51	0
2	187053	34.61	0
2	187610	34.71	0
2	188167	34.81	0
10	5168	2	0
10	10736	3	0
10	16304	4	0
10	21873	5	0
10	27450	6	0
10	33028	7	0
10	38606	8	0
10	44184	9	0
10	49762	10	0
10	55340	11	0
10	60918	12	0
10	66496	13	0
10	72074	14	0
10	77652	15	0
10	83230	16	0
10	88808	17	0
10	94386	18	0
10	99964	19	0
10	105542	20	0
10	111120	21	0
10	116698	22	0
10	122276	23	0
10	127854	24	0
10	133432	25	0
10	139010	26	0
10	144588	27	0
10	150166	28	0
10	155744	29	0
10	161322	30	0
10	166900	31	0
10	172478	32	0
10	178056	33	0
10	183634	34	0
9	5168	2	0.023297
9	10736	3	0.02625
9	16304	4	0.02625
9	21873	5	0.02625
9	27450	6	0.02625
9	33028	7	0.02625
9	38606	8	0.02625
9	44184	9	0.02625
9	49762	10	0.02625
9	55340	11	0.02625
9	60918	12	0.02625
9	66496	13	0.02625
9	72074	14	0.02625
9	77652	15	0.02625
9	83230	16	0.02625
9	88808	17	0.02625
9	94386	18	0.02625
9	99964	19	0.02625
9	105542	20	0.02625
9	111120	21	0.02625
9	116698	22	0.02625
9	122276	23	0.02625
9	127854	24	0.02625
9	133432	25	0.02625
9	139010	26	0.02625
9	144588	27	0.02625
9	150166	28	0.02625
9	155744	29	0.02625
9	161322	30	0.02625
9	166900	31	0.02625
9	172478	32	0.02625
9	178056	33	0.02625
9	183634	34	0.02625
8	5168	2	0
8	10736	3	0
8	16304	4	0
8	21873	5	0
8	27450	6	0
8	33028	7	0
8	38606	8	0
8	44184	9	0
8	49762	10	0
8	55340	11	0
8	60918	12	0
8	66496	13	0
8	72074	14	0
8	77652	15	0
8	83230	16	0
8	88808	17	0
8	94386	18	0
8	99964	19	0
8	105542	20	0
8	111120	21	0
8	116698	22	0
8	122276	23	0
8	127854	24	0
8	133432	25	0
8	139010	26	0
8	144588	27	0
8	150166	28	0
8	155744	29	0
8	161322	30	0
8	166900	31	0
8	172478	32	0
8	178056	33	0
8	183634	34	0
51	234	1.11	0
51	790	1.21	0
51	1346	1.31	9.0193650315484e-07
51	1902	1.41	8.7351434473248e-07
51	2458	1.51	8.3583327722181e-07
51	3014	1.61	7.9125847179284e-07
51	3570	1.71	7.4184338345162e-07
51	4126	1.81	6.8935061854347e-07
51	4682	1.91	6.3527400968155e-07
51	5246	2.01	5.8086123857493e-07
51	5802	2.11	5.2713680034344e-07
51	6358	2.21	4.7492458222109e-07
51	6914	2.31	4.2486982387402e-07
51	7470	2.41	3.7746027061303e-07
51	8026	2.51	3.3304623244135e-07
51	8582	2.61	2.9185947482802e-07
51	9138	2.71	2.5403068427465e-07
51	9694	2.81	2.1960562243351e-07
51	10250	2.91	1.8855980023602e-07
51	10814	3.01	1.6081180376659e-07
51	11370	3.11	1.3623516949224e-07
51	11926	3.21	1.1466889908718e-07
51	12482	3.31	9.5926701320082e-08
51	13038	3.41	7.9804994399524e-08
51	13594	3.51	6.6089767685185e-08
51	14150	3.61	5.4562376661238e-08
51	14706	3.71	4.5004312099195e-08
51	15262	3.81	3.7201285962851e-08
51	15818	3.91	3.0946266491583e-08
51	16382	4.01	2.604194413891e-08
51	16938	4.11	2.230262083458e-08
51	17494	4.21	1.9555433468099e-08
51	18050	4.31	1.764116646541e-08
51	18606	4.41	1.6414726857761e-08
51	19162	4.51	1.5745215975471e-08
51	19718	4.61	1.5515767373131e-08
51	20274	4.71	1.5623072329163e-08
51	20830	4.81	1.597686406285e-08
51	21386	4.91	1.6499182819985e-08
51	21951	5.01	1.7123577862321e-08
51	22508	5.11	1.7794222131329e-08
51	23065	5.21	0.17348379152268
51	23622	5.31	0.51370946709765
51	24179	5.41	0.83605425181053
51	24736	5.51	1.1312378530594
51	25293	5.61	1.3838212746979
51	25850	5.71	1.4960541864755
51	26407	5.81	1.495098258857
51	26964	5.91	1.4943534835368
51	27529	6.01	1.4937793992736
51	28086	6.11	1.4933427736566
51	28643	6.21	1.4930165248048
51	29200	6.31	1.4927785858247
51	29757	6.41	1.4926109797211
51	30314	6.51	1.4924990656985
51	30871	6.61	1.447348950055
51	31428	6.71	1.269855149477
51	31985	6.81	0.98778603793878
51	32542	6.91	0.67467210324318
51	33107	7.01	0.33790191338172
51	33664	7.11	-0.014971011398757
51	34221	7.21	-0.37635020741519
51	34778	7.31	-0.73871463548491
51	35335	7.41	-1.0947323452118
51	35892	7.51	-1.382485885622
51	36449	7.61	-1.4937896545454
51	37006	7.71	-1.4922211147213
51	37563	7.81	-1.4910100239937
51	38120	7.91	-1.4900891862457
51	38685	8.01	-1.4894036055635
51	39242	8.11	-1.4889082666374
51	39799	8.21	-1.4885663211399
51	40356	8.31	-1.4883476056106
51	40913	8.41	-1.4882274300481
51	41470	8.51	-1.4881855875664
51	42027	8.61	-1.4882055445901
51	42584	8.71	-1.4882737785017
51	43141	8.81	-1.4883792357321
51	43698	8.91	-1.4885128882445
51	44263	9.01	-1.4886673704112
51	44820	9.11	-1.488836681589
51	45377	9.21	-1.4890159423949
51	45934	9.31	-1.4892011948876
51	46491	9.41	-1.4893892386561
51	47048	9.51	-1.4895774962848
51	47605	9.61	-1.2852668767075
51	48162	9.71	-0.8648948082831
51	48719	9.81	-0.42935268472428
51	49276	9.91	0.007595426592698
51	49841	10.01	0.43606731525328
51	50398	10.11	0.84700304367563
51	50955	10.21	1.2322252784918
51	51512	10.31	1.4572539641437
51	52069	10.41	1.4962381676052
51	52626	10.51	1.4946155593631
51	53183	10.61	1.4933479934801
51	53740	10.71	1.4923689153248
51	54297	10.81	1.4916238588858
51	54854	10.91	1.4910682455242
51	55419	11.01	1.4906655858194
51	55976	11.11	1.490386010469
51	56533	11.21	1.490205069812
51	57090	11.31	1.4901027526521
51	57647	11.41	1.4900626841244
51	58204	11.51	1.4900714697534
51	58761	11.61	1.4901181588886
51	59318	11.71	1.4901938056374
51	59875	11.81	1.490291109438
51	60432	11.91	1.4596675227342
51	60997	12.01	1.2383190417956
51	61554	12.11	0.84621525594421
51	62111	12.21	0.43724028792928
51	62668	12.31	0.021275097364111
51	63225	12.41	-0.39230541643138
51	63782	12.51	-0.79471989621616
51	64339	12.61	-1.1778595378021
51	64896	12.71	-1.4299134883151
51	65453	12.81	-1.4952984409841
51	66010	12.91	-1.4936471628974
51	66575	13.01	-1.4923594467454
51	67132	13.11	-1.491367285118
51	67689	13.21	-1.490615009505
51	68246	13.31	-1.4900570452108
51	68803	13.41	-1.4896560770495
51	69360	13.51	-1.4893815504362
51	69917	13.61	-1.4892084463351
51	70474	13.71	-1.4891162798254
51	71031	13.81	-1.4890882812709
51	71588	13.91	-1.4891107266189
51	72153	14.01	-1.4891723894985
51	72710	14.11	-1.4892640928133
51	73267	14.21	-1.4893783416208
51	73824	14.31	-1.4895090224337
51	74381	14.41	-1.4896511568114
51	74938	14.51	-1.3468024765649
51	75495	14.61	-1.0000551843135
51	76052	14.71	-0.58540471580017
51	76609	14.81	-0.16212329465815
51	77166	14.91	0.25998777293882
51	77731	15.01	0.67177562124567
51	78288	15.11	1.0648116255981
51	78845	15.21	1.3767015938832
51	79402	15.31	1.4967154504992
51	79959	15.41	1.4949254792685
51	80516	15.51	1.4935225502845
51	81073	15.61	1.4924343353731
51	81630	15.71	1.4916016416665
51	82187	15.81	1.4909760195154
51	82744	15.91	1.4905178083601
51	83309	16.01	1.4901945401538
[...]
35	99722	18.962213935745	0.099998661009
35	100287	19.062212596602	0.099998660857
35	100844	19.1622112573	0.099998660698
35	101401	19.262209917837	0.099998660537
35	101958	19.362221578205	0.100011660368
35	102515	19.4622202384	0.099998660195
35	103072	19.56221889842	0.09999866002
35	103629	19.662217558267	0.099998659847
35	104186	19.76221621795	0.099998659683
35	104743	19.862214877482	0.099998659532
35	105300	19.962213536883	0.099998659401
35	105865	20.06221219618	0.099998659297
35	106422	20.162210855402	0.099998659222
35	106979	20.262209514581	0.099998659179
35	107536	20.362221173748	0.100011659167
35	108093	20.462219832928	0.09999865918
35	108650	20.562218492145	0.099998659217
35	109207	20.66221715142	0.099998659275
35	109764	20.762215810769	0.099998659349
35	110321	20.862214470204	0.099998659435
35	110878	20.962213129739	0.099998659535
35	111443	21.062211789384	0.099998659645
35	112000	21.162210449151	0.099998659767
35	112557	21.262222109044	0.100011659893
35	113114	21.362220769073	0.099998660029
35	113671	21.462219429243	0.09999866017
35	114228	21.562218089562	0.099998660319
35	114785	21.662216750036	0.099998660474
35	115342	21.762215410668	0.099998660632
35	115899	21.862214071466	0.099998660798
35	116456	21.962212732433	0.099998660967
35	117021	22.062211393572	0.099998661139
35	117578	22.162210054882	0.09999866131
35	118135	22.262221716353	0.100011661471
35	118692	22.362220377971	0.099998661618
35	119249	22.462219039715	0.099998661744
35	119806	22.562217701561	0.099998661846
35	120363	22.662216363478	0.099998661917
35	120920	22.762215025435	0.099998661957
35	121477	22.862213687403	0.099998661968
35	122034	22.962212349354	0.099998661951
35	122599	23.062211011265	0.099998661911
35	123156	23.162209673115	0.09999866185
35	123713	23.262221334888	0.100011661773
35	124270	23.362219996571	0.099998661683
35	124827	23.462218658153	0.099998661582
35	125384	23.56221731962	0.099998661467
35	125941	23.662215980967	0.099998661347
35	126498	23.762214642184	0.099998661217
35	127055	23.862213303262	0.099998661078
35	127612	23.962211964195	0.099998660933
35	128177	24.062210624979	0.099998660784
35	128734	24.162222285605	0.100011660626
35	129291	24.26222094607	0.099998660465
35	129848	24.362219606367	0.099998660297
35	130405	24.462218266495	0.099998660128
35	130962	24.562216926449	0.099998659954
35	131519	24.662215586229	0.09999865978
35	132076	24.762214245846	0.099998659617
35	132633	24.862212905313	0.099998659467
35	133190	24.962211564652	0.099998659339
35	133755	25.062210223887	0.099998659235
35	134312	25.16222188305	0.100011659163
35	134869	25.262220542169	0.099998659119
35	135426	25.362219201278	0.099998659109
35	135983	25.462217860401	0.099998659123
35	136540	25.562216519562	0.099998659161
35	137097	25.662215178781	0.099998659219
35	137654	25.762213838076	0.099998659295
35	138211	25.862212497459	0.099998659383
35	138768	25.962211156944	0.099998659485
35	139333	26.062209816537	0.099998659593
35	139890	26.16222147625	0.100011659713
35	140447	26.262220136094	0.099998659844
35	141004	26.362218796074	0.09999865998
35	141561	26.462217456195	0.099998660121
35	142118	26.562216116468	0.099998660273
35	142675	26.662214776894	0.099998660426
35	143232	26.76221343748	0.099998660586
35	143789	26.862212098233	0.099998660753
35	144346	26.962210759154	0.099998660921
35	144911	27.062222420248	0.100011661094
35	145468	27.162221081513	0.099998661265
35	146025	27.262219742942	0.099998661429
35	146582	27.362218404517	0.099998661575
35	147139	27.462217066219	0.099998661702
35	147696	27.562215728023	0.099998661804
35	148253	27.662214389901	0.099998661878
35	148810	27.762213051819	0.099998661918
35	149367	27.862211713747	0.099998661928
35	149924	27.962210375659	0.099998661912
35	150489	28.062222037531	0.100011661872
35	151046	28.162220699343	0.099998661812
35	151603	28.262219361081	0.099998661738
35	152160	28.362218022728	0.099998661647
35	152717	28.462216684272	0.099998661544
35	153274	28.562215345705	0.099998661433
35	153831	28.662214007016	0.099998661311
35	154388	28.762212668199	0.099998661183
35	154945	28.862211329244	0.099998661045
35	155502	28.962209990144	0.0999986609
35	156067	29.062221650894	0.10001166075
35	156624	29.162220311487	0.099998660593
35	157181	29.262218971919	0.099998660432
35	157738	29.362217632185	0.099998660266
35	158295	29.46221629228	0.099998660095
35	158852	29.562214952201	0.099998659921
35	159409	29.66221361195	0.099998659749
35	159966	29.762212271537	0.099998659587
35	160523	29.862210930975	0.099998659438
35	161080	29.962209590284	0.099998659309
35	161645	30.06222124949	0.100011659206
35	162202	30.162219908625	0.099998659135
35	162759	30.262218567717	0.099998659092
35	163316	30.362217226796	0.099998659079
35	163873	30.462215885891	0.099998659095
35	164430	30.562214545027	0.099998659136
35	164987	30.662213204219	0.099998659192
35	165544	30.762211863487	0.099998659268
35	166101	30.862210522844	0.099998659357
35	166658	30.962222182302	0.100011659458
35	167223	31.062220841871	0.099998659569
35	167780	31.16221950156	0.099998659689
35	168337	31.26221816138	0.09999865982
35	168894	31.362216821334	0.099998659954
35	169451	31.462215481433	0.099998660099
35	170008	31.56221414168	0.099998660247
35	170565	31.662212802082	0.099998660402
35	171122	31.762211462644	0.099998660562
35	171679	31.862210123373	0.099998660729
35	172236	31.962221784274	0.100011660901
35	172801	32.062220445347	0.099998661073
35	173358	32.162219106586	0.099998661239
35	173915	32.262217767975	0.099998661389
35	174472	32.362216429483	0.099998661508
35	175029	32.462215091064	0.099998661581
35	175586	32.562213752651	0.099998661587
35	176143	32.662212414157	0.099998661506
35	176700	32.762211075481	0.099998661324
35	177257	32.862209736499	0.099998661018
35	177814	32.962221397075	0.100011660576
35	178379	33.062220057062	0.099998659987
35	178936	33.162218716304	0.099998659242
35	179493	33.26221737464	0.099998658336
35	180050	33.362216031899	0.099998657259
35	180607	33.462214687908	0.099998656009
35	181164	33.562213342487	0.099998654579
35	181721	33.662211995455	0.099998652968
35	182278	33.762210646629	0.099998651174
35	182835	33.862222295823	0.100011649194
35	183392	33.962220942853	0.09999864703
35	183957	34.062219587525	0.099998644672
35	184514	34.162218229651	0.099998642126
35	185071	34.262216869043	0.099998639392
35	185628	34.362215505507	0.099998636464
35	186185	34.462214138857	0.09999863335
35	186742	34.562212768903	0.099998630046
35	187299	34.662211395462	0.099998626559
35	187856	34.762210018367	0.099998622905
35	188413	34.862221637458	0.100011619091
36	1034	1.262216930646	0.099998660458
36	1590	1.362215591104	0.099998660458
36	2146	1.462214251562	0.099998660458
36	2702	1.56221291202	0.099998660458
36	3258	1.662211572478	0.099998660458
36	3814	1.762210232936	0.099998660458
36	4370	1.862221893394	0.100011660458
36	4926	1.962220553852	0.099998660458
36	5490	2.06221921431	0.099998660458
36	6046	2.162217874768	0.099998660458
36	6602	2.262216535226	0.099998660458
36	7158	2.362215195684	0.099998660458
36	7714	2.462213856142	0.099998660458
36	8270	2.5622125166	0.099998660458
36	8826	2.662211177058	0.099998660458
36	9382	2.762209837516	0.099998660458
36	9938	2.862221497974	0.100011660458
36	10494	2.962220158432	0.099998660458
36	11058	3.06221881889	0.099998660458
36	11614	3.162217479348	0.099998660458
36	12170	3.262216139806	0.099998660458
36	12726	3.362214800264	0.099998660458
36	13282	3.462213460722	0.099998660458
36	13838	3.56221212118	0.099998660458
36	14394	3.662210781638	0.099998660458
36	14950	3.762209442096	0.099998660458
36	15506	3.862221102554	0.100011660458
36	16062	3.962219763012	0.099998660458
36	16626	4.06221842347	0.099998660458
36	17182	4.162217083928	0.099998660458
36	17738	4.262215744386	0.099998660458
36	18294	4.362214404844	0.099998660458
36	18850	4.462213065302	0.099998660458
36	19406	4.56221172576	0.099998660458
36	19962	4.662210386218	0.099998660458
36	20518	4.762222046676	0.100011660458
36	21074	4.862220707134	0.099998660458
36	21630	4.962219367592	0.099998660458
36	22195	5.06221802805	0.099998660458
36	22752	5.162216688508	0.099998660458
36	23309	5.26221534897	0.099998660462
36	23866	5.36221400944	0.09999866047
36	24423	5.462212669931	0.099998660491
36	24980	5.562211330461	0.09999866053
36	25537	5.662209991046	0.099998660585
36	26094	5.762221651708	0.100011660662
36	26651	5.862220312467	0.099998660759
36	27208	5.962218973339	0.099998660872
36	27773	6.062217634338	0.099998660999
36	28330	6.162216295472	0.099998661134
36	28887	6.262214956757	0.099998661285
36	29444	6.362213618198	0.099998661441
36	30001	6.462212279802	0.099998661604
36	30558	6.562210941578	0.099998661776
36	31115	6.662209603533	0.099998661955
36	31672	6.762221265667	0.100011662134
36	32229	6.862219927978	0.099998662311
36	32786	6.962218590462	0.099998662484
36	33351	7.062217253106	0.099998662644
36	33908	7.162215915895	0.099998662789
36	34465	7.262214578806	0.099998662911
36	35022	7.362213241818	0.099998663012
36	35579	7.462211904902	0.099998663084
36	36136	7.562210568028	0.099998663126
36	36693	7.662222231168	0.10001166314
36	37250	7.762220894294	0.099998663126
36	37807	7.862219557386	0.099998663092
36	38364	7.962218220422	0.099998663036
36	38929	8.062216883388	0.099998662966
36	39486	8.162215546269	0.099998662881
36	40043	8.262214209054	0.099998662785
36	40600	8.362212871733	0.099998662679
36	41157	8.462211534297	0.099998662564
36	41714	8.562210196735	0.099998662438
36	42271	8.662221859042	0.100011662307
36	42828	8.762220521209	0.099998662167
36	43385	8.862219183233	0.099998662024
36	43942	8.962217845106	0.099998661873
36	44507	9.062216506821	0.099998661715
36	45064	9.162215168374	0.099998661553
36	45621	9.262213829759	0.099998661385
36	46178	9.362212490971	0.099998661212
36	46735	9.462211152007	0.099998661036
36	47292	9.562209812863	0.099998660856
36	47849	9.662221473536	0.100011660673
36	48406	9.762220134031	0.099998660495
36	48963	9.862218794354	0.099998660323
36	49520	9.962217454528	0.099998660174
36	50085	10.062216114571	0.099998660043
36	50642	10.162214774515	0.099998659944
36	51199	10.262213434387	0.099998659872
36	51756	10.36221209422	0.099998659833
36	52313	10.462210754045	0.099998659825
36	52870	10.562222413887	0.100011659842
36	53427	10.66222107377	0.099998659883
36	53984	10.762219733709	0.099998659939
36	54541	10.862218393723	0.099998660014
36	55098	10.962217053823	0.0999986601
36	55663	11.062215714023	0.0999986602
36	56220	11.162214374332	0.099998660309
36	56777	11.262213034758	0.099998660426
36	57334	11.362211695311	0.099998660553
36	57891	11.462210355998	0.099998660687
36	58448	11.562222016825	0.100011660827
36	59005	11.662220677797	0.099998660972
36	59562	11.762219338921	0.099998661124
36	60119	11.862218000203	0.099998661282
36	60676	11.962216661647	0.099998661444
36	61241	12.062215323256	0.099998661609
36	61798	12.162213985025	0.099998661769
36	62355	12.262212646945	0.09999866192
36	62912	12.362211309002	0.099998662057
36	63469	12.462209971173	0.099998662171
36	64026	12.562221633432	0.100011662259
36	64583	12.662220295748	0.099998662316
36	65140	12.76221895809	0.099998662342
36	65697	12.86221762043	0.09999866234
36	66254	12.962216282743	0.099998662313
36	66819	13.062214945004	0.099998662261
36	67376	13.162213607197	0.099998662193
36	67933	13.262212269305	0.099998662108
36	68490	13.362210931315	0.09999866201
36	69047	13.462209593217	0.099998661902
36	69604	13.562221254998	0.100011661781
36	70161	13.662219916652	0.099998661654
36	70718	13.762218578169	0.099998661517
36	71275	13.862217239544	0.099998661375
36	71832	13.962215900769	0.099998661225
36	72397	14.062214561837	0.099998661068
36	72954	14.162213222745	0.099998660908
36	73511	14.262211883486	0.099998660741
36	74068	14.362210544055	0.099998660569
36	74625	14.462222204449	0.100011660394
36	75182	14.562220864664	0.099998660215
36	75739	14.662219524702	0.099998660038
36	76296	14.762218184569	0.099998659867
36	76853	14.862216844282	0.099998659713
36	77410	14.962215503862	0.09999865958
36	77975	15.062214163332	0.09999865947
36	78532	15.162212822723	0.099998659391
36	79089	15.262211482063	0.09999865934
36	79646	15.362210141386	0.099998659323
36	80203	15.462221800721	0.100011659335
36	80760	15.562220460087	0.099998659366
36	81317	15.662219119508	0.099998659421
36	81874	15.762217778999	0.099998659491
36	82431	15.862216438573	0.099998659574
36	82988	15.962215098246	0.099998659673
36	83553	16.062213758024	0.099998659778
36	84110	16.16221241792	0.099998659896
36	84667	16.262211077941	0.099998660021
36	85224	16.362209738095	0.099998660154
36	85781	16.46222139839	0.100011660295
36	86338	16.56222005883	0.09999866044
36	86895	16.662218719422	0.099998660592
36	87452	16.762217380172	0.09999866075
36	88009	16.862216041084	0.099998660912
36	88566	16.962214702164	0.09999866108
36	89131	17.062213363414	0.09999866125
36	89688	17.162212024832	0.099998661418
36	90245	17.26221068641	0.099998661578
36	90802	17.362222348131	0.100011661721
36	91359	17.462221009976	0.099998661845
36	91916	17.562219671922	0.099998661946
36	92473	17.662218333937	0.099998662015
36	93030	17.76221699599	0.099998662053
36	93587	17.86221565805	0.09999866206
36	94144	17.962214320093	0.099998662043
36	94709	18.06221298209	0.099998661997
36	95266	18.162211644029	0.099998661939
36	95823	18.262210305888	0.099998661859
36	96380	18.362221967654	0.100011661766
36	96937	18.462220629316	0.099998661662
36	97494	18.562219290864	0.099998661548
36	98051	18.662217952288	0.099998661424
36	98608	18.76221661358	0.099998661292
36	99165	18.862215274736	0.099998661156
36	99722	18.962213935745	0.099998661009
36	100287	19.062212596602	0.099998660857
36	100844	19.1622112573	0.099998660698
36	101401	19.262209917837	0.099998660537
36	101958	19.362221578205	0.100011660368
36	102515	19.4622202384	0.099998660195
36	103072	19.56221889842	0.09999866002
36	103629	19.662217558267	0.099998659847
36	104186	19.76221621795	0.099998659683
36	104743	19.862214877482	0.099998659532
36	105300	19.962213536883	0.099998659401
36	105865	20.06221219618	0.099998659297
36	106422	20.162210855402	0.099998659222
36	106979	20.262209514581	0.099998659179
36	107536	20.362221173748	0.100011659167
36	108093	20.462219832928	0.09999865918
36	108650	20.562218492145	0.099998659217
36	109207	20.66221715142	0.099998659275
36	109764	20.762215810769	0.099998659349
36	110321	20.862214470204	0.099998659435
36	110878	20.962213129739	0.099998659535
36	111443	21.062211789384	0.099998659645
36	112000	21.162210449151	0.099998659767
36	112557	21.262222109044	0.100011659893
36	113114	21.362220769073	0.099998660029
36	113671	21.462219429243	0.09999866017
36	114228	21.562218089562	0.099998660319
36	114785	21.662216750036	0.099998660474
36	115342	21.762215410668	0.099998660632
36	115899	21.862214071466	0.099998660798
36	116456	21.962212732433	0.099998660967
36	117021	22.062211393572	0.099998661139
36	117578	22.162210054882	0.09999866131
36	118135	22.262221716353	0.100011661471
36	118692	22.362220377971	0.099998661618
36	119249	22.462219039715	0.099998661744
36	119806	22.562217701561	0.099998661846
36	120363	22.662216363478	0.099998661917
36	120920	22.762215025435	0.099998661957
36	121477	22.862213687403	0.099998661968
36	122034	22.962212349354	0.099998661951
36	122599	23.062211011265	0.099998661911
36	123156	23.162209673115	0.09999866185
36	123713	23.262221334888	0.100011661773
36	124270	23.362219996571	0.099998661683
36	124827	23.462218658153	0.099998661582
36	125384	23.56221731962	0.099998661467
36	125941	23.662215980967	0.099998661347
36	126498	23.762214642184	0.099998661217
36	127055	23.862213303262	0.099998661078
36	127612	23.962211964195	0.099998660933
36	128177	24.062210624979	0.099998660784
36	128734	24.162222285605	0.100011660626
36	129291	24.26222094607	0.099998660465
36	129848	24.362219606367	0.099998660297
36	130405	24.462218266495	0.099998660128
36	130962	24.562216926449	0.099998659954
36	131519	24.662215586229	0.09999865978
36	132076	24.762214245846	0.099998659617
36	132633	24.862212905313	0.099998659467
36	133190	24.962211564652	0.099998659339
36	133755	25.062210223887	0.099998659235
36	134312	25.16222188305	0.100011659163
36	134869	25.262220542169	0.099998659119
36	135426	25.362219201278	0.099998659109
36	135983	25.462217860401	0.099998659123
36	136540	25.562216519562	0.099998659161
36	137097	25.662215178781	0.099998659219
36	137654	25.762213838076	0.099998659295
36	138211	25.862212497459	0.099998659383
36	138768	25.962211156944	0.099998659485
36	139333	26.062209816537	0.099998659593
36	139890	26.16222147625	0.100011659713
36	140447	26.262220136094	0.099998659844
36	141004	26.362218796074	0.09999865998
36	141561	26.462217456195	0.099998660121
36	142118	26.562216116468	0.099998660273
36	142675	26.662214776894	0.099998660426
36	143232	26.76221343748	0.099998660586
36	143789	26.862212098233	0.099998660753
36	144346	26.962210759154	0.099998660921
36	144911	27.062222420248	0.100011661094
36	145468	27.162221081513	0.099998661265
36	146025	27.262219742942	0.099998661429
36	146582	27.362218404517	0.099998661575
36	147139	27.462217066219	0.099998661702
36	147696	27.562215728023	0.099998661804
36	148253	27.662214389901	0.099998661878
36	148810	27.762213051819	0.099998661918
36	149367	27.862211713747	0.099998661928
36	149924	27.962210375659	0.099998661912
36	150489	28.062222037531	0.100011661872
36	151046	28.162220699343	0.099998661812
36	151603	28.262219361081	0.099998661738
36	152160	28.362218022728	0.099998661647
36	152717	28.462216684272	0.099998661544
36	153274	28.562215345705	0.099998661433
36	153831	28.662214007016	0.099998661311
36	154388	28.762212668199	0.099998661183
36	154945	28.862211329244	0.099998661045
36	155502	28.962209990144	0.0999986609
36	156067	29.062221650894	0.10001166075
36	156624	29.162220311487	0.099998660593
36	157181	29.262218971919	0.099998660432
36	157738	29.362217632185	0.099998660266
36	158295	29.46221629228	0.099998660095
36	158852	29.562214952201	0.099998659921
36	159409	29.66221361195	0.099998659749
36	159966	29.762212271537	0.099998659587
36	160523	29.862210930975	0.099998659438
36	161080	29.962209590284	0.099998659309
36	161645	30.06222124949	0.100011659206
36	162202	30.162219908625	0.099998659135
36	162759	30.262218567717	0.099998659092
36	163316	30.362217226796	0.099998659079
36	163873	30.462215885891	0.099998659095
36	164430	30.562214545027	0.099998659136
36	164987	30.662213204219	0.099998659192
36	165544	30.762211863487	0.099998659268
36	166101	30.862210522844	0.099998659357
36	166658	30.962222182302	0.100011659458
36	167223	31.062220841871	0.099998659569
36	167780	31.16221950156	0.099998659689
36	168337	31.26221816138	0.09999865982
36	168894	31.362216821334	0.099998659954
36	169451	31.462215481433	0.099998660099
36	170008	31.56221414168	0.099998660247
36	170565	31.662212802082	0.099998660402
36	171122	31.762211462644	0.099998660562
36	171679	31.862210123373	0.099998660729
36	172236	31.962221784274	0.100011660901
36	172801	32.062220445347	0.099998661073
36	173358	32.162219106586	0.099998661239
36	173915	32.262217767975	0.099998661389
36	174472	32.362216429483	0.099998661508
36	175029	32.462215091064	0.099998661581
36	175586	32.562213752651	0.099998661587
36	176143	32.662212414157	0.099998661506
36	176700	32.762211075481	0.099998661324
36	177257	32.862209736499	0.099998661018
36	177814	32.962221397075	0.100011660576
36	178379	33.062220057062	0.099998659987
36	178936	33.162218716304	0.099998659242
36	179493	33.26221737464	0.099998658336
36	180050	33.362216031899	0.099998657259
36	180607	33.462214687908	0.099998656009
36	181164	33.562213342487	0.099998654579
36	181721	33.662211995455	0.099998652968
36	182278	33.762210646629	0.099998651174
36	182835	33.862222295823	0.100011649194
36	183392	33.962220942853	0.09999864703
36	183957	34.062219587525	0.099998644672
36	184514	34.162218229651	0.099998642126
36	185071	34.262216869043	0.099998639392
36	185628	34.362215505507	0.099998636464
36	186185	34.462214138857	0.09999863335
36	186742	34.562212768903	0.099998630046
36	187299	34.662211395462	0.099998626559
36	187856	34.762210018367	0.099998622905
36	188413	34.862221637458	0.100011619091
