version 2
run SinusoidalJammingDetail-242-20170801-16:49:09-32460
attr CACCSpacing 11
attr attackAcc -30
attr attackPos 7
attr attackSpeed 150
attr attackStart 30
attr attacker 1
attr beaconInterval 0.1
attr configname SinusoidalJammingDetail
attr controller 1
attr datetime 20170801-16:49:09
attr experiment SinusoidalJammingDetail
attr fakeAcc "(1 == 4)"
attr fakePos "(1 == 2)"
attr fakeSpeed "(1 == 3)"
attr inifile omnetpp_242.ini
attr iterationvars "$leaderSpeed=80, $controller=1, $CACCSpacing=11, $sController=\"CACC\", $attacker=1, $attackStart=30, $attackSpeed=150, $attackPos=7, $attackAcc=-30, $0=11, $1=0, $nCars=8, $platoonSize=8, $nLanes=1, $beaconInterval=0.1, $priority=2, $packetSize=200, $ploegH=0.5, $leaderHeadway=1.2, $fakeSpeed=(1 == 3), $fakeAcc=(1 == 4), $fakePos=(1 == 2)"
attr iterationvarsf leaderSpeed=80,controller=1,CACCSpacing=11,sController=CACC,attacker=1,attackStart=30,attackSpeed=150,attackPos=7,attackAcc=-30,11,0,nCars=8,platoonSize=8,nLanes=1,beaconInterval=0.1,priority=2,packetSize=200,ploegH=0.5,leaderHeadway=1.2,fakeSpeed=(1_==_3),fakeAcc=(1_==_4),fakePos=(1_==_2)-
attr leaderHeadway 1.2
attr leaderSpeed 80
attr measurement "$leaderSpeed=80, $controller=1, $CACCSpacing=11, $sController=\"CACC\", $attacker=1, $attackStart=30, $attackSpeed=150, $attackPos=7, $attackAcc=-30, $0=11, $1=0, $nCars=8, $platoonSize=8, $nLanes=1, $beaconInterval=0.1, $priority=2, $packetSize=200, $ploegH=0.5, $leaderHeadway=1.2, $fakeSpeed=(1 == 3), $fakeAcc=(1 == 4), $fakePos=(1 == 2)"
attr nCars 8
attr nLanes 1
attr network scenario
attr packetSize 200
attr platoonSize 8
attr ploegH 0.5
attr priority 2
attr processid 32460
attr repetition 2
attr replication #2
attr resultdir results
attr runnumber 242
attr sController "\"CACC\""
attr seedset 2
param **.coreDebug false
param **.debug false
param **.headway 0.1s
param **.numberOfCars 8
param **.numberOfCarsPerPlatoon 8
param **.numberOfLanes 1
param **.numericController 1
param **.traffic.nCars 8
param **.traffic.nLanes 1
param **.traffic.platoonInsertDistance 11m
param **.traffic.platoonInsertHeadway 0s
param **.traffic.platoonInsertSpeed 80kmph
param **.traffic.platoonInsertTime "1 s"
param **.traffic.platoonLeaderHeadway 1.2s
param **.traffic.platoonSize 8
param **.traffic.platooningVType "\"vtypeauto\""
param **.traffic_type "\"PlatoonsTrafficManager\""
param *.**.nic.mac1609_4.bitrate 6Mbps
param *.**.nic.mac1609_4.txPower 100mW
param *.**.nic.mac1609_4.useServiceChannel false
param *.**.nic.phy80211p.analogueModels "xmldoc(\"config.xml\")"
param *.**.nic.phy80211p.decider "xmldoc(\"config.xml\")"
param *.**.nic.phy80211p.maxTXPower 100mW
param *.**.nic.phy80211p.sensitivity -94dBm
param *.**.nic.phy80211p.thermalNoise -95dBm
param *.**.nic.phy80211p.usePropagationDelay true
param *.**.nic.phy80211p.useThermalNoise true
param *.annotations.draw false
param *.connectionManager.alpha 2.0
param *.connectionManager.carrierFrequency "5.890e9 Hz"
param *.connectionManager.pMax 100mW
param *.connectionManager.sat -94dBm
param *.connectionManager.sendDirect true
param *.manager.autoShutdown true
param *.manager.commandLine "\"sumo --remote-port $port --seed $seed --configuration-file $configFile\""
param *.manager.configFile "\"./sumocfg/freeway.sumo.cfg\""
param *.manager.host "\"localhost\""
param *.manager.margin 25
param *.manager.moduleDisplayString "\"\""
param *.manager.moduleName "\"node\""
param *.manager.moduleType "\"Car\""
param *.manager.updateInterval 0.01s
param *.node[*].appl.attackStart 30s
param *.node[*].appl.attackerType 1
param *.node[*].appl.simulationDuration "60 s"
param *.node[*].appl_type "\"SimplePlatooningApp\""
param *.node[*].helper.nCars 8
param *.node[*].helper.nLanes 1
param *.node[*].helper.platoonSize 8
param *.node[*].helper_type "\"PositionHelper\""
param *.node[*].mobility.x 0
param *.node[*].mobility.y 0
param *.node[*].mobility.z 1.895
param *.node[*].prot.attackStart 30s
param *.node[*].prot.attackerType 1
param *.node[*].prot.attackingNode 3
param *.node[*].prot.beaconingInterval 0.1s
param *.node[*].prot.fakeAcc "(1 == 4)"
param *.node[*].prot.fakePos "(1 == 2)"
param *.node[*].prot.fakeSpeed "(1 == 3)"
param *.node[*].prot.maliciousAcc "-30 mpss"
param *.node[*].prot.maliciousSpeed 150kmph
param *.node[*].prot.packetSize 200
param *.node[*].prot.priority 2
param *.node[*].prot.shiftX "7 m"
param *.node[*].prot.useControllerAcceleration true
param *.node[*].protocol_type "\"SimplePlatooningBeaconing\""
param *.node[*].scenario.accHeadway 0.1s
param *.node[*].scenario.caccC1 0.5
param *.node[*].scenario.caccOmegaN "0.2 Hz"
param *.node[*].scenario.caccSpacing 11m
param *.node[*].scenario.caccXi 1
param *.node[*].scenario.controller "\"CACC\""
param *.node[*].scenario.engineTau "0.5 s"
param *.node[*].scenario.leaderHeadway 1.2s
param *.node[*].scenario.leaderOscillationFrequency "0.2 Hz"
param *.node[*].scenario.leaderSpeed 80kmph
param *.node[*].scenario.oscillationAmplitude "10 kmph"
param *.node[*].scenario.ploegH 0.5s
param *.node[*].scenario.ploegKd 0.7
param *.node[*].scenario.ploegKp 0.2
param *.node[*].scenario.startOscillating "5 s"
param *.node[*].scenario.useRealisticEngine false
param *.node[*].scenario_type "\"SinusoidalScenario\""
param *.node[*].unicast.packetLossRate 0
param *.obstacles.debug false
param *.playgroundSizeX 65000m
param *.playgroundSizeY 25000m
param *.playgroundSizeZ 50m
param *.world.use2D false
param *.world.useTorus false

vector 0  scenario.node[0].appl  distance  ETV
vector 1  scenario.node[0].appl  relativeSpeed  ETV
vector 2  scenario.node[0].appl  nodeId  ETV
vector 6  scenario.node[0].appl  acceleration  ETV
vector 7  scenario.node[0].appl  controllerAcceleration  ETV
vector 3  scenario.node[0].appl  speed  ETV
vector 4  scenario.node[0].appl  posx  ETV
vector 5  scenario.node[0].appl  posy  ETV
vector 22  scenario.node[1].appl  distance  ETV
vector 23  scenario.node[1].appl  relativeSpeed  ETV
vector 24  scenario.node[1].appl  nodeId  ETV
vector 28  scenario.node[1].appl  acceleration  ETV
vector 29  scenario.node[1].appl  controllerAcceleration  ETV
vector 25  scenario.node[1].appl  speed  ETV
vector 26  scenario.node[1].appl  posx  ETV
vector 27  scenario.node[1].appl  posy  ETV
vector 44  scenario.node[2].appl  distance  ETV
vector 45  scenario.node[2].appl  relativeSpeed  ETV
vector 46  scenario.node[2].appl  nodeId  ETV
vector 50  scenario.node[2].appl  acceleration  ETV
vector 51  scenario.node[2].appl  controllerAcceleration  ETV
vector 47  scenario.node[2].appl  speed  ETV
vector 48  scenario.node[2].appl  posx  ETV
vector 49  scenario.node[2].appl  posy  ETV
vector 66  scenario.node[3].appl  distance  ETV
vector 67  scenario.node[3].appl  relativeSpeed  ETV
vector 68  scenario.node[3].appl  nodeId  ETV
vector 72  scenario.node[3].appl  acceleration  ETV
vector 73  scenario.node[3].appl  controllerAcceleration  ETV
vector 69  scenario.node[3].appl  speed  ETV
vector 70  scenario.node[3].appl  posx  ETV
vector 71  scenario.node[3].appl  posy  ETV
vector 88  scenario.node[4].appl  distance  ETV
vector 89  scenario.node[4].appl  relativeSpeed  ETV
vector 90  scenario.node[4].appl  nodeId  ETV
vector 94  scenario.node[4].appl  acceleration  ETV
vector 95  scenario.node[4].appl  controllerAcceleration  ETV
vector 91  scenario.node[4].appl  speed  ETV
vector 92  scenario.node[4].appl  posx  ETV
vector 93  scenario.node[4].appl  posy  ETV
vector 110  scenario.node[5].appl  distance  ETV
vector 111  scenario.node[5].appl  relativeSpeed  ETV
vector 112  scenario.node[5].appl  nodeId  ETV
vector 116  scenario.node[5].appl  acceleration  ETV
vector 117  scenario.node[5].appl  controllerAcceleration  ETV
vector 113  scenario.node[5].appl  speed  ETV
vector 114  scenario.node[5].appl  posx  ETV
vector 115  scenario.node[5].appl  posy  ETV
vector 132  scenario.node[6].appl  distance  ETV
vector 133  scenario.node[6].appl  relativeSpeed  ETV
vector 134  scenario.node[6].appl  nodeId  ETV
vector 138  scenario.node[6].appl  acceleration  ETV
vector 139  scenario.node[6].appl  controllerAcceleration  ETV
vector 135  scenario.node[6].appl  speed  ETV
vector 136  scenario.node[6].appl  posx  ETV
vector 137  scenario.node[6].appl  posy  ETV
vector 154  scenario.node[7].appl  distance  ETV
vector 155  scenario.node[7].appl  relativeSpeed  ETV
vector 156  scenario.node[7].appl  nodeId  ETV
vector 160  scenario.node[7].appl  acceleration  ETV
vector 161  scenario.node[7].appl  controllerAcceleration  ETV
vector 157  scenario.node[7].appl  speed  ETV
vector 158  scenario.node[7].appl  posx  ETV
vector 159  scenario.node[7].appl  posy  ETV
vector 168  scenario.node[7].prot  frontDelay  ETV
vector 166  scenario.node[7].prot  frontDelayId  ETV
vector 146  scenario.node[6].prot  frontDelay  ETV
vector 144  scenario.node[6].prot  frontDelayId  ETV
vector 35  scenario.node[1].prot  leaderDelay  ETV
vector 33  scenario.node[1].prot  leaderDelayId  ETV
vector 36  scenario.node[1].prot  frontDelay  ETV
vector 34  scenario.node[1].prot  frontDelayId  ETV
vector 57  scenario.node[2].prot  leaderDelay  ETV
vector 55  scenario.node[2].prot  leaderDelayId  ETV
vector 79  scenario.node[3].prot  leaderDelay  ETV
vector 77  scenario.node[3].prot  leaderDelayId  ETV
vector 101  scenario.node[4].prot  leaderDelay  ETV
vector 99  scenario.node[4].prot  leaderDelayId  ETV
vector 123  scenario.node[5].prot  leaderDelay  ETV
vector 121  scenario.node[5].prot  leaderDelayId  ETV
vector 145  scenario.node[6].prot  leaderDelay  ETV
vector 143  scenario.node[6].prot  leaderDelayId  ETV
vector 167  scenario.node[7].prot  leaderDelay  ETV
vector 165  scenario.node[7].prot  leaderDelayId  ETV
vector 102  scenario.node[4].prot  frontDelay  ETV
vector 100  scenario.node[4].prot  frontDelayId  ETV
vector 80  scenario.node[3].prot  frontDelay  ETV
vector 78  scenario.node[3].prot  frontDelayId  ETV
vector 124  scenario.node[5].prot  frontDelay  ETV
vector 122  scenario.node[5].prot  frontDelayId  ETV
vector 58  scenario.node[2].prot  frontDelay  ETV
vector 56  scenario.node[2].prot  frontDelayId  ETV
vector 8  scenario.node[0].prot  nodeId  ETV
vector 9  scenario.node[0].prot  busyTime  ETV
vector 10  scenario.node[0].prot  collisions  ETV
vector 30  scenario.node[1].prot  nodeId  ETV
vector 31  scenario.node[1].prot  busyTime  ETV
vector 32  scenario.node[1].prot  collisions  ETV
vector 52  scenario.node[2].prot  nodeId  ETV
vector 53  scenario.node[2].prot  busyTime  ETV
vector 54  scenario.node[2].prot  collisions  ETV
vector 74  scenario.node[3].prot  nodeId  ETV
vector 75  scenario.node[3].prot  busyTime  ETV
vector 76  scenario.node[3].prot  collisions  ETV
vector 96  scenario.node[4].prot  nodeId  ETV
vector 97  scenario.node[4].prot  busyTime  ETV
vector 98  scenario.node[4].prot  collisions  ETV
vector 118  scenario.node[5].prot  nodeId  ETV
vector 119  scenario.node[5].prot  busyTime  ETV
vector 120  scenario.node[5].prot  collisions  ETV
vector 140  scenario.node[6].prot  nodeId  ETV
vector 141  scenario.node[6].prot  busyTime  ETV
vector 142  scenario.node[6].prot  collisions  ETV
vector 162  scenario.node[7].prot  nodeId  ETV
vector 163  scenario.node[7].prot  busyTime  ETV
vector 164  scenario.node[7].prot  collisions  ETV
7	232	1.11	8.430731206488e-07
7	788	1.21	8.247038785214e-07
7	1344	1.31	7.948429328053e-07
7	1900	1.41	7.5609037608615e-07
7	2456	1.51	7.1073863239235e-07
7	3012	1.61	6.6078666094427e-07
7	3568	1.71	6.079568990458e-07
7	4124	1.81	5.5371389606762e-07
7	4680	1.91	4.9928438983216e-07
7	5244	2.01	4.4567811841034e-07
7	5800	2.11	3.9370868165634e-07
7	6356	2.21	3.4401411852514e-07
7	6912	2.31	2.9707706872273e-07
7	7468	2.41	2.5324398578164e-07
7	8024	2.51	2.1274344064182e-07
7	8580	2.61	1.7570315336002e-07
7	9136	2.71	1.4216582755466e-07
7	9692	2.81	1.1210364547765e-07
7	10248	2.91	8.5431519636359e-08
7	10812	3.01	6.2018816748832e-08
7	11368	3.11	4.1699859565369e-08
7	11924	3.21	2.4283316690799e-08
7	12480	3.31	9.5601571103998e-09
7	13036	3.41	-2.6894362292751e-09
7	13592	3.51	-1.2690140493987e-08
7	14148	3.61	-2.0666576006079e-08
7	14704	3.71	-2.6839355626862e-08
7	15260	3.81	-3.1421798496467e-08
7	15816	3.91	-3.4617407607129e-08
7	16380	4.01	-3.6617997523081e-08
7	16936	4.11	-3.7602347902066e-08
7	17492	4.21	-3.7735404134764e-08
7	18048	4.31	-3.7167730226884e-08
7	18604	4.41	-3.6035434192172e-08
7	19160	4.51	-3.446024621212e-08
7	19716	4.61	-3.2549973383311e-08
7	20272	4.71	-3.0399071704323e-08
7	20828	4.81	-2.8089345960325e-08
7	21384	4.91	-2.5690727767369e-08
7	21949	5.01	-2.326218861981e-08
7	22506	5.11	0.34814785015927
7	23063	5.21	0.68726933461214
7	23620	5.31	1.0064705986278
7	24177	5.41	1.2963311417008
7	24734	5.51	1.5
7	25291	5.61	1.5
7	25848	5.71	1.5
7	26405	5.81	1.5
7	26962	5.91	1.5
7	27527	6.01	1.5
7	28084	6.11	1.5
7	28641	6.21	1.5
7	29198	6.31	1.5
7	29755	6.41	1.5
7	30312	6.51	1.49192340766
7	30869	6.61	1.22649932262
7	31426	6.71	0.92305383478006
7	31983	6.81	0.58908101519542
7	32540	6.91	0.23235621239028
7	33105	7.01	-0.13919560128961
7	33662	7.11	-0.5176284684353
7	34219	7.21	-0.89509994168449
7	34776	7.31	-1.2639902903501
7	35333	7.41	-1.5
7	35890	7.51	-1.5
7	36447	7.61	-1.5
7	37004	7.71	-1.5
7	37561	7.81	-1.5
7	38118	7.91	-1.5
7	38683	8.01	-1.5
7	39240	8.11	-1.5
7	39797	8.21	-1.5
7	40354	8.31	-1.5
7	40911	8.41	-1.5
7	41468	8.51	-1.5
7	42025	8.61	-1.5
7	42582	8.71	-1.5
7	43139	8.81	-1.5
7	43696	8.91	-1.5
7	44261	9.01	-1.5
7	44818	9.11	-1.5
7	45375	9.21	-1.5
7	45932	9.31	-1.5
7	46489	9.41	-1.5
7	47046	9.51	-1.1784535907027
7	47603	9.61	-0.73985166445766
7	48160	9.71	-0.29046662083969
7	48717	9.81	0.158682056465
7	49274	9.91	0.59737147669388
7	49839	10.01	1.0162504339893
7	50396	10.11	1.4069035497099
7	50953	10.21	1.5
7	51510	10.31	1.5
7	52067	10.41	1.5
7	52624	10.51	1.5
7	53181	10.61	1.5
7	53738	10.71	1.5
7	54295	10.81	1.5
7	54852	10.91	1.5
7	55417	11.01	1.5
7	55974	11.11	1.5
7	56531	11.21	1.5
7	57088	11.31	1.5
7	57645	11.41	1.5
7	58202	11.51	1.5
7	58759	11.61	1.5
7	59316	11.71	1.5
7	59873	11.81	1.5
7	60430	11.91	1.1420569522637
7	60995	12.01	0.73271074167055
7	61552	12.11	0.3076349169641
7	62109	12.21	-0.12290183406852
7	62666	12.31	-0.54917422870931
7	63223	12.41	-0.96209331721755
7	63780	12.51	-1.3532900275778
7	64337	12.61	-1.5
7	64894	12.71	-1.5
7	65451	12.81	-1.5
7	66008	12.91	-1.5
7	66573	13.01	-1.5
7	67130	13.11	-1.5
7	67687	13.21	-1.5
7	68244	13.31	-1.5
7	68801	13.41	-1.5
7	69358	13.51	-1.5
7	69915	13.61	-1.5
7	70472	13.71	-1.5
7	71029	13.81	-1.5
7	71586	13.91	-1.5
7	72151	14.01	-1.5
7	72708	14.11	-1.5
7	73265	14.21	-1.5
7	73822	14.31	-1.5
7	74379	14.41	-1.3008305793368
7	74936	14.51	-0.88835736023102
7	75493	14.61	-0.45792464376746
7	76050	14.71	-0.020297800498863
7	76607	14.81	0.41435934755698
7	77164	14.91	0.83657487483132
7	77729	15.01	1.2376491838803
7	78286	15.11	1.5
7	78843	15.21	1.5
7	79400	15.31	1.5
7	79957	15.41	1.5
7	80514	15.51	1.5
7	81071	15.61	1.5
7	81628	15.71	1.5
7	82185	15.81	1.5
7	82742	15.91	1.5
7	83307	16.01	1.5
7	83864	16.11	1.5
7	84421	16.21	1.5
7	84978	16.31	1.5
7	85535	16.41	1.5
7	86092	16.51	1.5
7	86649	16.61	1.5
7	87206	16.71	1.5
7	87763	16.81	1.5
7	88320	16.91	1.2451238477314
7	88885	17.01	0.83347870134691
7	89442	17.11	0.40470958876234
7	89999	17.21	-0.03059806222544
7	90556	17.31	-0.46243980387284
7	91113	17.41	-0.88148335305215
7	91670	17.51	-1.2791500631777
7	92227	17.61	-1.5
7	92784	17.71	-1.5
7	93341	17.81	-1.5
7	93898	17.91	-1.5
7	94463	18.01	-1.5
7	95020	18.11	-1.5
7	95577	18.21	-1.5
7	96134	18.31	-1.5
7	96691	18.41	-1.5
7	97248	18.51	-1.5
7	97805	18.61	-1.5
7	98362	18.71	-1.5
7	98919	18.81	-1.5
7	99476	18.91	-1.5
7	100041	19.01	-1.5
7	100598	19.11	-1.5
7	101155	19.21	-1.5
7	101712	19.31	-1.5
7	102269	19.41	-1.2657245815164
7	102826	19.51	-0.85377693481871
7	103383	19.61	-0.4243956003844
7	103940	19.71	0.011767371264867
7	104497	19.81	0.44464851836084
7	105054	19.91	0.86486384400239
7	105619	20.01	1.2637899041101
7	106176	20.11	1.5
7	106733	20.21	1.5
7	107290	20.31	1.5
7	107847	20.41	1.5
7	108404	20.51	1.5
7	108961	20.61	1.5
7	109518	20.71	1.5
7	110075	20.81	1.5
7	110632	20.91	1.5
7	111197	21.01	1.5
7	111754	21.11	1.5
7	112311	21.21	1.5
7	112868	21.31	1.5
7	113425	21.41	1.5
7	113982	21.51	1.5
7	114539	21.61	1.5
7	115096	21.71	1.5
7	115653	21.81	1.5
7	116210	21.91	1.2580915517753
7	116775	22.01	0.84625491634726
7	117332	22.11	0.41709956367407
7	117889	22.21	-0.018747163543662
7	118446	22.31	-0.45124369149508
7	119003	22.41	-0.87102520538678
7	119560	22.51	-1.2694848794604
7	120117	22.61	-1.5
7	120674	22.71	-1.5
7	121231	22.81	-1.5
7	121788	22.91	-1.5
7	122353	23.01	-1.5
7	122910	23.11	-1.5
7	123467	23.21	-1.5
7	124024	23.31	-1.5
7	124581	23.41	-1.5
7	125138	23.51	-1.5
7	125695	23.61	-1.5
7	126252	23.71	-1.5
7	126809	23.81	-1.5
7	127366	23.91	-1.5
7	127931	24.01	-1.5
7	128488	24.11	-1.5
7	129045	24.21	-1.5
7	129602	24.31	-1.5
7	130159	24.41	-1.2609239651119
7	130716	24.51	-0.84904615684549
7	131273	24.61	-0.41980696481121
7	131830	24.71	0.016157099446048
7	132387	24.81	0.44879633966007
7	132944	24.91	0.86873882266865
7	133509	25.01	1.2673715557193
7	134066	25.11	1.5
7	134623	25.21	1.5
7	135180	25.31	1.5
7	135737	25.41	1.5
7	136294	25.51	1.5
7	136851	25.61	1.5
7	137408	25.71	1.5
7	137965	25.81	1.5
7	138522	25.91	1.5
7	139087	26.01	1.5
7	139644	26.11	1.5
7	140201	26.21	1.5
7	140758	26.31	1.5
7	141315	26.41	1.5
7	141872	26.51	1.5
7	142429	26.61	1.5
7	142986	26.71	1.5
7	143543	26.81	1.5
7	144100	26.91	1.2598728518627
7	144665	27.01	0.84801032251372
7	145222	27.11	0.41880224309083
7	145779	27.21	-0.017118277442513
7	146336	27.31	-0.44970455708465
7	146893	27.41	-0.86958730431945
7	147450	27.51	-1.2681558149833
7	148007	27.61	-1.5
7	148564	27.71	-1.5
7	149121	27.81	-1.5
7	149678	27.91	-1.5
7	150243	28.01	-1.5
7	150800	28.11	-1.5
7	151357	28.21	-1.5
7	151914	28.31	-1.5
7	152471	28.41	-1.5
7	153028	28.51	-1.5
7	153585	28.61	-1.5
7	154142	28.71	-1.5
7	154699	28.81	-1.5
7	155256	28.91	-1.5
7	155821	29.01	-1.5
7	156378	29.11	-1.5
7	156935	29.21	-1.5
7	157492	29.31	-1.5
7	158049	29.41	-1.2602629232518
7	158606	29.51	-0.84839472385647
7	159163	29.61	-0.41917509845289
7	159720	29.71	0.016761581286932
7	160277	29.81	0.44936751475819
7	160834	29.91	0.86927243012153
7	161399	30.01	1.2678647739108
7	161956	30.11	1.5
7	162513	30.21	1.5
7	163070	30.31	1.5
7	163627	30.41	1.5
7	164184	30.51	1.5
7	164741	30.61	1.5
7	165298	30.71	1.5
7	165855	30.81	1.5
7	166412	30.91	1.5
7	166977	31.01	1.5
7	167534	31.11	1.5
7	168091	31.21	1.5
7	168648	31.31	1.5
7	169205	31.41	1.5
7	169762	31.51	1.5
7	170319	31.61	1.5
7	170876	31.71	1.5
7	171433	31.81	1.5
7	171990	31.91	1.2601181665206
7	172555	32.01	0.84825207129739
7	173112	32.11	0.41903673064385
7	173669	32.21	-0.016893952363201
7	174226	32.31	-0.44949259223613
7	174783	32.41	-0.8693892809366
7	175340	32.51	-1.2679727801774
7	175897	32.61	-1.5
7	176454	32.71	-1.5
7	177011	32.81	-1.5
7	177568	32.91	-1.5
7	178133	33.01	-1.5
7	178690	33.11	-1.5
7	179247	33.21	-1.5
7	179804	33.31	-1.5
7	180361	33.41	-1.5
7	180918	33.51	-1.5
7	181475	33.61	-1.5
7	182032	33.71	-1.5
7	182589	33.81	-1.5
7	183146	33.91	-1.5
7	183711	34.01	-1.5
7	184268	34.11	-1.5
7	184825	34.21	-1.5
7	185382	34.31	-1.5
7	185939	34.41	-1.2601718862039
7	186496	34.51	-0.84830501011572
7	187053	34.61	-0.41908807937784
7	187610	34.71	0.016844829035751
7	188167	34.81	0.44944617558619
7	188724	34.91	0.86934591722748
7	189289	35.01	1.2679326987084
7	189846	35.11	1.5
7	190403	35.21	1.5
7	190960	35.31	1.5
7	191517	35.41	1.5
7	192074	35.51	1.5
7	192631	35.61	1.5
7	193188	35.71	1.5
7	193745	35.81	1.5
7	194302	35.91	1.5
7	194867	36.01	1.5
7	195424	36.11	1.5
7	195981	36.21	1.5
7	196538	36.31	1.5
7	197095	36.41	1.5
7	197652	36.51	1.5
7	198209	36.61	1.5
7	198766	36.71	1.5
7	199323	36.81	1.5
7	199880	36.91	1.2601519506571
7	200445	37.01	0.84828536435041
7	201002	37.11	0.41906902369789
7	201559	37.21	-0.016863058860206
7	202116	37.31	-0.4494634009539
7	202673	37.41	-0.86936200963903
7	203230	37.51	-1.2679475730701
7	203787	37.61	-1.5
7	204344	37.71	-1.5
7	204901	37.81	-1.5
7	205458	37.91	-1.5
7	206023	38.01	-1.5
7	206580	38.11	-1.5
7	207137	38.21	-1.5
7	207694	38.31	-1.5
7	208251	38.41	-1.5
7	208808	38.51	-1.5
7	209365	38.61	-1.5
7	209922	38.71	-1.5
7	210479	38.81	-1.5
7	211036	38.91	-1.5
7	211601	39.01	-1.5
7	212158	39.11	-1.5
7	212715	39.21	-1.5
7	213272	39.31	-1.5
7	213829	39.41	-1.2601593488036
7	214386	39.51	-0.84829265495815
7	214943	39.61	-0.4190760953231
7	215500	39.71	0.016856293712618
7	216057	39.81	0.4494570085635
7	216614	39.91	0.86935603769236
7	217179	40.01	1.2679420531457
7	217736	40.11	1.5
7	218293	40.21	1.5
7	218850	40.31	1.5
7	219407	40.41	1.5
7	219964	40.51	1.5
7	220521	40.61	1.5
7	221078	40.71	1.5
7	221635	40.81	1.5
7	222192	40.91	1.5
7	222757	41.01	1.5
7	223314	41.11	1.5
7	223871	41.21	1.5
7	224428	41.31	1.5
7	224985	41.41	1.5
7	225542	41.51	1.5
7	226099	41.61	1.5
7	226656	41.71	1.5
7	227213	41.81	1.5
7	227770	41.91	1.2601566033284
7	228335	42.01	0.84828994939089
7	228892	42.11	0.41907347102095
7	229449	42.21	-0.016858804279924
7	230006	42.31	-0.4494593807994
7	230563	42.41	-0.86935825390022
7	231120	42.51	-1.2679441016066
7	231677	42.61	-1.5
7	232234	42.71	-1.5
7	232791	42.81	-1.5
7	233348	42.91	-1.5
7	233913	43.01	-1.5
7	234470	43.11	-1.5
7	235027	43.21	-1.5
7	235584	43.31	-1.5
7	236141	43.41	-1.5
7	236698	43.51	-1.5
7	237255	43.61	-1.5
7	237812	43.71	-1.5
7	238369	43.81	-1.5
7	238926	43.91	-1.5
7	239491	44.01	-1.5
7	240048	44.11	-1.5
7	240605	44.21	-1.5
7	241162	44.31	-1.5
7	241719	44.41	-1.2601576221816
7	242276	44.51	-0.84829095343409
7	242833	44.61	-0.41907444490639
7	243390	44.71	0.016857872601843
7	243947	44.81	0.44945850045652
7	244504	44.91	0.86935743145974
7	245069	45.01	1.2679433414174
7	245626	45.11	1.5
7	246183	45.21	1.5
7	246740	45.31	1.5
7	247297	45.41	1.5
7	247854	45.51	1.5
7	248411	45.61	1.5
7	248968	45.71	1.5
7	249525	45.81	1.5
7	250082	45.91	1.5
7	250647	46.01	1.5
7	251204	46.11	1.5
7	251761	46.21	1.5
7	252318	46.31	1.5
7	252875	46.41	1.5
7	253432	46.51	1.5
7	253989	46.61	1.5
7	254546	46.71	1.5
7	255103	46.81	1.5
7	255660	46.91	1.2601572440827
7	256225	47.01	0.84829058083129
7	256782	47.11	0.41907408349525
7	257339	47.21	-0.016858218349732
7	257896	47.31	-0.44945882715384
7	258453	47.41	-0.86935773666943
7	259010	47.51	-1.2679436235256
7	259567	47.61	-1.5
7	260124	47.71	-1.5
7	260681	47.81	-1.5
7	261238	47.91	-1.5
7	261803	48.01	-1.5
7	262360	48.11	-1.5
7	262917	48.21	-1.5
7	263474	48.31	-1.5
7	264031	48.41	-1.5
7	264588	48.51	-1.5
7	265145	48.61	-1.5
7	265702	48.71	-1.5
7	266259	48.81	-1.5
7	266816	48.91	-1.5
7	267381	49.01	-1.5
7	267938	49.11	-1.5
7	268495	49.21	-1.5
7	269052	49.31	-1.5
7	269609	49.41	-1.2601573843952
7	270166	49.51	-0.84829071910411
7	270723	49.61	-0.41907421761477
7	271280	49.71	0.016858090042899
7	271837	49.81	0.44945870591672
7	272394	49.91	0.86935762340638
7	272959	50.01	1.2679435188356
7	273516	50.11	1.5
7	274073	50.21	1.5
7	274630	50.31	1.5
7	275187	50.41	1.5
7	275744	50.51	1.5
7	276301	50.61	1.5
7	276858	50.71	1.5
7	277415	50.81	1.5
7	277972	50.91	1.5
7	278537	51.01	1.5
7	279094	51.11	1.5
7	279651	51.21	1.5
7	280208	51.31	1.5
7	280765	51.41	1.5
7	281322	51.51	1.5
7	281879	51.61	1.5
7	282436	51.71	1.5
7	282993	51.81	1.5
7	283550	51.91	1.2601573323257
7	284115	52.01	0.84829066779152
7	284672	52.11	0.41907416784349
7	285229	52.21	-0.016858137657085
7	285786	52.31	-0.44945875090737
7	286343	52.41	-0.86935766543788
7	286900	52.51	-1.2679435576857
7	287457	52.61	-1.5
7	288014	52.71	-1.5
7	288571	52.81	-1.5
7	289128	52.91	-1.5
7	289693	53.01	-1.5
7	290250	53.11	-1.5
7	290807	53.21	-1.5
7	291364	53.31	-1.5
7	291921	53.41	-1.5
7	292478	53.51	-1.5
7	293035	53.61	-1.5
7	293592	53.71	-1.5
7	294149	53.81	-1.5
7	294706	53.91	-1.5
7	295271	54.01	-1.5
7	295828	54.11	-1.5
7	296385	54.21	-1.5
7	296942	54.31	-1.5
7	297499	54.41	-1.2601573516497
7	298056	54.51	-0.8482906868347
7	298613	54.61	-0.41907418631469
7	299170	54.71	0.016858119986384
7	299727	54.81	0.44945873421026
7	300284	54.91	0.86935764983889
7	300849	55.01	1.2679435432672
7	301406	55.11	1.5
7	301963	55.21	1.5
7	302520	55.31	1.5
7	303077	55.41	1.5
7	303634	55.51	1.5
7	304191	55.61	1.5
7	304748	55.71	1.5
7	305305	55.81	1.5
7	305862	55.91	1.5
7	306427	56.01	1.5
7	306984	56.11	1.5
7	307541	56.21	1.5
7	308098	56.31	1.5
7	308655	56.41	1.5
7	309212	56.51	1.5
7	309769	56.61	1.5
7	310326	56.71	1.5
7	310883	56.81	1.5
7	311440	56.91	1.2601573444777
7	312005	57.01	0.84829067976691
7	312562	57.11	0.41907417945924
7	313119	57.21	-0.016858126544712
7	313676	57.31	-0.44945874040717
7	314233	57.41	-0.86935765562825
7	314790	57.51	-1.2679435486185
7	315347	57.61	-1.5
7	315904	57.71	-1.5
7	316461	57.81	-1.5
7	317018	57.91	-1.5
7	317583	58.01	-1.5
7	318140	58.11	-1.5
7	318697	58.21	-1.5
7	319254	58.31	-1.5
7	319811	58.41	-1.5
7	320368	58.51	-1.5
7	320925	58.61	-1.5
7	321482	58.71	-1.5
7	322039	58.81	-1.5
7	322596	58.91	-1.5
7	323161	59.01	-1.5
7	323718	59.11	-1.5
7	324275	59.21	-1.5
7	324832	59.31	-1.5
7	325389	59.41	-1.2601573471393
7	325946	59.51	-0.84829068238978
7	326503	59.61	-0.41907418200329
7	327060	59.71	0.016858124110932
7	327617	59.81	0.44945873810752
7	328174	59.91	0.8693576534799
6	232	1.11	1.2391545567425e-07
6	788	1.21	2.514333630188e-07
6	1344	1.31	3.5153284727585e-07
6	1900	1.41	4.2734420446777e-07
6	2456	1.51	4.8187125401e-07
6	3012	1.61	5.1795971955926e-07
6	3568	1.71	5.3827413637464e-07
6	4124	1.81	5.4528506154838e-07
6	4680	1.91	5.4125663950799e-07
6	5244	2.01	5.2824375984528e-07
6	5800	2.11	5.080941889446e-07
6	6356	2.21	4.8245141215375e-07
6	6912	2.31	4.5276244975412e-07
6	7468	2.41	4.202860282021e-07
6	8024	2.51	3.8610643571246e-07
6	8580	2.61	3.5114133822844e-07
6	9136	2.71	3.1616025353287e-07
6	9692	2.81	2.8179307776099e-07
6	10248	2.91	2.4854536206931e-07
6	10812	3.01	2.1681287876163e-07
6	11368	3.11	1.8689298997288e-07
6	11924	3.21	1.5899530581009e-07
6	12480	3.31	1.3325838210676e-07
6	13036	3.41	1.0975469422192e-07
6	13592	3.51	8.8505203166278e-08
6	14148	3.61	6.948575048682e-08
6	14704	3.71	5.263665059374e-08
6	15260	3.81	3.7870506730542e-08
6	15816	3.91	2.5077895315917e-08
6	16380	4.01	1.4133405557004e-08
6	16936	4.11	4.9016790626411e-09
6	17492	4.21	-2.7593927143243e-09
6	18048	4.31	-8.9940499492513e-09
6	18604	4.41	-1.3947598631603e-08
6	19160	4.51	-1.7761081494427e-08
6	19716	4.61	-2.0570567471623e-08
6	20272	4.71	-2.2507151697937e-08
6	20828	4.81	-2.3691626438449e-08
6	21384	4.91	-2.4239099616352e-08
6	21949	5.01	-2.4253310471067e-08
6	22506	5.11	0.0068264050138822
6	23063	5.21	0.074594790622484
6	23620	5.31	0.19005130280156
6	24177	5.41	0.34050268492081
6	24734	5.51	0.51301635125718
6	25291	5.61	0.69025455388463
6	25848	5.71	0.83572669994751
6	26405	5.81	0.95506452764909
6	26962	5.91	1.0529631117155
6	27527	6.01	1.1332740487145
6	28084	6.11	1.1991569893425
6	28641	6.21	1.2532039476781
6	29198	6.31	1.2975412780619
6	29755	6.41	1.3339133316631
6	30312	6.51	1.3635927194422
6	30869	6.61	1.3702053558546
6	31426	6.71	1.3272611868377
6	31983	6.81	1.2373810863703
6	32540	6.91	1.10404336986
6	33105	7.01	0.93147091462953
6	33662	7.11	0.72451590042988
6	34219	7.21	0.48854317855174
6	34776	7.31	0.22931329168649
6	35333	7.41	-0.044839402561792
6	35890	7.51	-0.30626147784645
6	36447	7.61	-0.52071863285548
6	37004	7.71	-0.69664819536399
6	37561	7.81	-0.84097171286572
6	38118	7.91	-0.95936726507979
6	38683	8.01	-1.0564928550515
6	39240	8.11	-1.1361696676595
6	39797	8.21	-1.2015324054218
6	40354	8.31	-1.2551526162195
6	40911	8.41	-1.299139864987
6	41468	8.51	-1.3352247297291
6	42025	8.61	-1.3648268871716
6	42582	8.71	-1.3891109667025
6	43139	8.81	-1.40903237006
6	43696	8.91	-1.4253748594349
6	44261	9.01	-1.4387813928092
6	44818	9.11	-1.4497794196703
6	45375	9.21	-1.4588016323081
6	45932	9.31	-1.466202989106
6	46489	9.41	-1.4722746795719
6	47046	9.51	-1.4696249147679
6	47603	9.61	-1.3967850640324
6	48160	9.71	-1.2587757642699
6	48717	9.81	-1.066095221946
6	49274	9.91	-0.8292333503487
6	49839	10.01	-0.55852907850635
6	50396	10.11	-0.26404116086489
6	50953	10.21	0.039432698568831
6	51510	10.31	0.30182609741765
6	52067	10.41	0.51708007606237
6	52624	10.51	0.69366331148437
6	53181	10.61	0.83852306844925
6	53738	10.71	0.9573585237959
6	54295	10.81	1.0548449875539
6	54852	10.91	1.1348178423589
6	55417	11.01	1.2004234378345
6	55974	11.11	1.2542428765453
6	56531	11.21	1.2983935615914
6	57088	11.31	1.3346125010074
6	57645	11.41	1.3643246463804
6	58202	11.51	1.3886989543238
6	58759	11.61	1.4086943764056
6	59316	11.71	1.425097586916
6	59873	11.81	1.4385539327701
6	60430	11.91	1.4345627372659
6	60995	12.01	1.3623449188493
6	61552	12.11	1.2299875654136
6	62109	12.21	1.046144839739
6	62666	12.31	0.81967864244703
6	63223	12.41	0.55952045900121
6	63780	12.51	0.27454262944673
6	64337	12.61	-0.022341644921298
6	64894	12.71	-0.28780548061533
6	65451	12.81	-0.50557828690501
6	66008	12.91	-0.68422783830435
6	66573	13.01	-0.83078269406727
6	67130	13.11	-0.95100872083052
6	67687	13.21	-1.0496359374866
6	68244	13.31	-1.1305446069922
6	68801	13.41	-1.1969178964666
6	69358	13.51	-1.2513671116437
6	69915	13.61	-1.2960344327443
6	70472	13.71	-1.3326771936686
6	71029	13.81	-1.3627370202961
6	71586	13.91	-1.387396547964
6	72151	14.01	-1.4076259495617
6	72708	14.11	-1.4242211047701
6	73265	14.21	-1.4378349121323
6	73822	14.31	-1.4490029758559
6	74379	14.41	-1.4542593951862
6	74936	14.51	-1.406745439008
6	75493	14.61	-1.2938574955371
6	76050	14.71	-1.1248409052335
6	76607	14.81	-0.90912582143545
6	77164	14.91	-0.65618298377075
6	77729	15.01	-0.37539052554685
6	78286	15.11	-0.078063005097917
6	78843	15.21	0.20543869667193
6	79400	15.31	0.43800883573084
6	79957	15.41	0.6287973539095
6	80514	15.51	0.78531039043277
6	81071	15.61	0.91370559385275
6	81628	15.71	1.0190343806912
6	82185	15.81	1.1054406719015
6	82742	15.91	1.1763239259945
6	83307	16.01	1.2344728829795
6	83864	16.11	1.2821752809813
6	84421	16.21	1.3213078620826
6	84978	16.31	1.3534102084588
6	85535	16.41	1.37974531373
6	86092	16.51	1.401349272566
6	86649	16.61	1.4190720434684
6	87206	16.71	1.4336108884475
6	87763	16.81	1.445537805208
6	88320	16.91	1.4502949065324
6	88885	17.01	1.3935559567514
6	89442	17.11	1.2733368701429
6	89999	17.21	1.0986742440515
6	90556	17.31	0.87879676591136
6	91113	17.41	0.62298329275663
6	91670	17.51	0.34043137853068
6	92227	17.61	0.043031849076769
6	92784	17.71	-0.23417644595618
6	93341	17.81	-0.46158379949794
6	93898	17.91	-0.64813703535584
6	94463	18.01	-0.80117566522766
6	95020	18.11	-0.92672064505805
6	95577	18.21	-1.0297112558195
6	96134	18.31	-1.114199428261
6	96691	18.41	-1.1835091568834
6	97248	18.51	-1.2403672749233
6	97805	18.61	-1.2870107353912
6	98362	18.71	-1.3252746188865
6	98919	18.81	-1.3566643306593
6	99476	18.91	-1.382414827345
6	100041	19.01	-1.4035392035215
6	100598	19.11	-1.4208685496044
6	101155	19.21	-1.4350846492011
6	101712	19.31	-1.4467468023362
6	102269	19.41	-1.4517201941779
6	102826	19.51	-1.3984004323895
6	103383	19.61	-1.2808993810108
6	103940	19.71	-1.1083308503789
6	104497	19.81	-0.88999806037009
6	105054	19.91	-0.63525086467102
6	105619	20.01	-0.35335363991607
6	106176	20.11	-0.055983891309808
6	106733	20.21	0.22355126013096
6	107290	20.31	0.45286744637067
6	107847	20.41	0.64098658988634
6	108404	20.51	0.79530980944291
6	108961	20.61	0.9219086002382
6	109518	20.71	1.0257637030328
6	110075	20.81	1.1109610600439
6	110632	20.91	1.1808525670215
6	111197	21.01	1.2381879459461
6	111754	21.11	1.2852229265697
6	112311	21.21	1.3238079929597
6	112868	21.31	1.3554611865729
6	113425	21.41	1.3814278301389
6	113982	21.51	1.4027295220426
6	114539	21.61	1.4202043287792
6	115096	21.71	1.4345397567762
6	115653	21.81	1.4462998007623
6	116210	21.91	1.4512038299458
6	116775	22.01	1.3966149622043
6	117332	22.11	1.2781048258539
6	117889	22.21	1.1047586168253
6	118446	22.31	0.88585193073918
6	119003	22.41	0.63070830476057
6	119560	22.51	0.34856734380959
6	120117	22.61	0.051185654370656
6	120674	22.71	-0.22748748564574
6	121231	22.81	-0.45609652228009
6	121788	22.91	-0.64363555681872
6	122353	23.01	-0.79748288496297
6	122910	23.11	-0.92369127904632
6	123467	23.21	-1.0272261205632
6	124024	23.31	-1.1121607517786
6	124581	23.41	-1.1818367320966
6	125138	23.51	-1.2389953040923
6	125695	23.61	-1.2858852414528
6	126252	23.71	-1.3243513218477
6	126809	23.81	-1.3559069055024
6	127366	23.91	-1.3817934749049
6	127931	24.01	-1.4030294781044
6	128488	24.11	-1.4204503972252
6	129045	24.21	-1.434741618608
6	129602	24.31	-1.4464653977726
6	130159	24.41	-1.4513952146881
6	130716	24.51	-1.3972773206763
6	131273	24.61	-1.2791416668563
6	131830	24.71	-1.1060840673021
6	132387	24.81	-0.88739036841652
6	132944	24.91	-0.63239387292597
6	133509	25.01	-0.35034337810913
6	134066	25.11	-0.052966136909305
6	134623	25.21	0.2260268698226
6	135180	25.31	0.45489830857264
6	135737	25.41	0.64265260424108
6	136294	25.51	0.79667652148672
6	136851	25.61	0.92302978013947
6	137408	25.71	1.026683461059
6	137965	25.81	1.1117155819772
6	138522	25.91	1.1814715378073
6	139087	26.01	1.2386957175785
6	139644	26.11	1.2856394761656
6	140201	26.21	1.3241497087126
6	140758	26.31	1.3557415125099
6	141315	26.41	1.381657795045
6	141872	26.51	1.4029181733619
6	142429	26.61	1.4203590885685
6	142986	26.71	1.4346667137069
6	143543	26.81	1.4464039496644
6	144100	26.91	1.4513241957726
6	144665	27.01	1.3970315218256
6	145222	27.11	1.2787568961965
6	145779	27.21	1.1055921925461
6	146336	27.31	0.88681945319387
6	146893	27.41	0.63176835684509
6	147450	27.51	0.34968428947479
6	148007	27.61	0.05230539719534
6	148564	27.71	-0.22656890652399
6	149121	27.81	-0.45534296745871
6	149678	27.91	-0.64301737940262
6	150243	28.01	-0.79697576417068
6	150800	28.11	-0.92327526336611
6	151357	28.21	-1.0268848428069
6	151914	28.31	-1.1118807851517
6	152471	28.41	-1.1816070619506
6	153028	28.51	-1.2388068945789
6	153585	28.61	-1.2857306800289
6	154142	28.71	-1.3242245276459
6	154699	28.81	-1.3558028900945
6	155256	28.91	-1.3817081460427
6	155821	29.01	-1.4029594787171
6	156378	29.11	-1.4203929733469
6	156935	29.21	-1.4346945110272
6	157492	29.31	-1.4464267531491
6	158049	29.41	-1.4513505510322
6	158606	29.51	-1.3971227384761
6	159163	29.61	-1.2788996857307
6	159720	29.71	-1.1057747287555
6	160277	29.81	-0.88703132157555
6	160834	29.91	-0.63200048778391
6	161399	30.01	-0.34992887929981
6	161956	30.11	-0.052550599748002
6	162513	30.21	0.22636775502605
6	163070	30.31	0.45517795316989
6	163627	30.41	0.64288201021121
6	164184	30.51	0.79686471428424
6	164741	30.61	0.92318416378099
6	165298	30.71	1.0268101094166
6	165855	30.81	1.1118194777413
6	166412	30.91	1.1815567685208
6	166977	31.01	1.2387656364488
6	167534	31.11	1.2856968339918
6	168091	31.21	1.324196762107
6	168648	31.31	1.3557801126822
6	169205	31.41	1.3816894606308
6	169762	31.51	1.4029441501705
6	170319	31.61	1.4203803985996
6	170876	31.71	1.4346841953547
6	171433	31.81	1.4464182907037
6	171990	31.91	1.451340770512
6	172555	32.01	1.397088887688
6	173112	32.11	1.2788466960817
6	173669	32.21	1.105706988989
6	174226	32.31	0.88695269654693
6	174783	32.41	0.6319143432556
6	175340	32.51	0.34983811123936
6	175897	32.61	0.052459604302157
6	176454	32.71	-0.22644240298604
6	177011	32.81	-0.45523919049693
6	177568	32.91	-0.64293224614822
6	178133	33.01	-0.7969059252499
6	178690	33.11	-0.92321797112582
6	179247	33.21	-1.0268378432144
6	179804	33.31	-1.1118422291158
6	180361	33.41	-1.181575432572
6	180918	33.51	-1.2387809474717
6	181475	33.61	-1.2857093943634
6	182032	33.71	-1.3242070659867
6	182589	33.81	-1.3557885654517
6	183146	33.91	-1.3816963948457
6	183711	34.01	-1.4029498386424
6	184268	34.11	-1.4203850651278
6	184825	34.21	-1.434688023533
6	185382	34.31	-1.4464214311442
6	185939	34.41	-1.4513444000944
6	186496	34.51	-1.3971014498232
6	187053	34.61	-1.2788663607083
6	187610	34.71	-1.1057321274315
6	188167	34.81	-0.88698187454526
6	188724	34.91	-0.63194631176486
6	189289	35.01	-0.34987179555586
6	189846	35.11	-0.052493373001994
6	190403	35.21	0.22641470089013
6	190960	35.31	0.45521646512974
6	191517	35.41	0.64291360343276
6	192074	35.51	0.79689063173021
6	192631	35.61	0.9232054251143
6	193188	35.71	1.0268275511155
6	193745	35.81	1.1118337860104
6	194302	35.91	1.1815685062846
6	194867	36.01	1.2387752655037
6	195424	36.11	1.2857047331707
6	195981	36.21	1.324203242185
6	196538	36.31	1.3557854286034
6	197095	36.41	1.3816938215378
6	197652	36.51	1.4029477276342
6	198209	36.61	1.4203833333653
6	198766	36.71	1.4346866028841
6	199323	36.81	1.4464202657173
6	199880	36.91	1.4513430531448
6	200445	37.01	1.3970967879747
6	201002	37.11	1.2788590631025
6	201559	37.21	1.1057227984747
6	202116	37.31	0.8869710464964
6	202673	37.41	0.63193444814829
6	203230	37.51	0.34985929519813
6	203787	37.61	0.052480841329228
6	204344	37.71	-0.22642498122742
6	204901	37.81	-0.45522489858705
6	205458	37.91	-0.64292052180406
6	206023	38.01	-0.79689630720416
6	206580	38.11	-0.92321008097898
6	207137	38.21	-1.0268313705456
6	207694	38.31	-1.1118369192733
6	208251	38.41	-1.1815710766513
6	208808	38.51	-1.2387773740993
6	209365	38.61	-1.2857064629529
6	209922	38.71	-1.3242046612092
6	210479	38.81	-1.3557865926966
6	211036	38.91	-1.3816947764997
6	211601	39.01	-1.4029485110349
6	212158	39.11	-1.420383976027
6	212715	39.21	-1.4346871300905
6	213272	39.31	-1.4464206982101
6	213829	39.41	-1.4513435530016
6	214386	39.51	-1.3970985180013
6	214943	39.61	-1.2788617712673
6	215500	39.71	-1.1057262604808
6	216057	39.81	-0.88697506482056
6	216614	39.91	-0.63193885077553
6	217179	40.01	-0.34986393412169
6	217736	40.11	-0.052485491873711
6	218293	40.21	0.22642116616005
6	218850	40.31	0.45522176890245
6	219407	40.41	0.64291795437263
6	219964	40.51	0.79689420101552
6	220521	40.61	0.92320835317068
6	221078	40.71	1.0268299531418
6	221635	40.81	1.1118357565078
6	222192	40.91	1.1815701227786
6	222757	41.01	1.2387765915918
6	223314	41.11	1.2857058210248
6	223871	41.21	1.3242041346043
6	224428	41.31	1.3557861606976
6	224985	41.41	1.3816944221094
6	225542	41.51	1.4029482203117
6	226099	41.61	1.420383737533
6	226656	41.71	1.4346869344426
6	227213	41.81	1.4464205377106
6	227770	41.91	1.4513433675031
6	228335	42.01	1.3970978759829
6	228892	42.11	1.2788607662586
6	229449	42.21	1.1057249757194
6	230006	42.31	0.88697357360701
6	230563	42.41	0.6319372169461
6	231120	42.51	0.3498622126024
6	231677	42.61	0.052483766041789
6	232234	42.71	-0.22642258194381
6	232791	42.81	-0.45522293033819
6	233348	42.91	-0.64291890715467
6	233913	43.01	-0.79689498262923
6	234470	43.11	-0.92320899436622
6	235027	43.21	-1.0268304791456
6	235584	43.31	-1.111836188014
6	236141	43.41	-1.1815704767642
6	236698	43.51	-1.2387768819831
6	237255	43.61	-1.2857060592466
6	237812	43.71	-1.3242043300295
6	238369	43.81	-1.3557863210146
6	238926	43.91	-1.3816945536259
6	239491	44.01	-1.4029483282012
6	240048	44.11	-1.4203838260396
6	240605	44.21	-1.4346870070494
6	241162	44.31	-1.4464205972729
6	241719	44.41	-1.4513434363423
6	242276	44.51	-1.3970981142382
6	242833	44.61	-1.2788611392207
6	243390	44.71	-1.1057254524978
6	243947	44.81	-0.88697412700043
6	244504	44.91	-0.63193782326394
6	245069	45.01	-0.34986285146203
6	245626	45.11	-0.052484406502273
6	246183	45.21	0.22642205654293
6	246740	45.31	0.45522249932652
6	247297	45.41	0.64291855357439
6	247854	45.51	0.7968946925704
6	248411	45.61	0.92320875641683
6	248968	45.71	1.0268302839439
6	249525	45.81	1.1118360278807
6	250082	45.91	1.1815703453994
6	250647	46.01	1.2387767742183
6	251204	46.11	1.285705970842
6	251761	46.21	1.3242042575069
6	252318	46.31	1.3557862615201
6	252875	46.41	1.3816945048191
6	253432	46.51	1.4029482881629
6	253989	46.61	1.4203837931944
6	254546	46.71	1.4346869801042
6	255103	46.81	1.4464205751686
6	255660	46.91	1.4513434107954
6	256225	47.01	1.3970980258208
6	256782	47.11	1.2788610008133
6	257339	47.21	1.1057252755645
6	257896	47.31	0.88697392163581
6	258453	47.41	0.63193759825886
6	259010	47.51	0.34986261438021
6	259567	47.61	0.052484168826084
6	260124	47.71	-0.22642225152048
6	260681	47.81	-0.45522265927609
6	261238	47.91	-0.64291868478925
6	261803	48.01	-0.79689480021266
6	262360	48.11	-0.92320884472166
6	262917	48.21	-1.0268303563844
6	263474	48.31	-1.1118360873073
6	264031	48.41	-1.1815703941497
6	264588	48.51	-1.2387768142112
6	265145	48.61	-1.2857060036499
6	265702	48.71	-1.3242042844208
6	266259	48.81	-1.3557862835995
6	266816	48.91	-1.3816945229319
6	267381	49.01	-1.402948303021
6	267938	49.11	-1.4203838053835
6	268495	49.21	-1.434686990104
6	269052	49.31	-1.4464205833722
6	269609	49.41	-1.4513434202772
6	270166	49.51	-1.3970980586329
6	270723	49.61	-1.278861052177
6	271280	49.71	-1.105725341225
6	271837	49.81	-0.88697399784721
6	272394	49.91	-0.63193768175829
6	272959	50.01	-0.34986270236175
6	273516	50.11	-0.05248425702824
6	274073	50.21	0.22642217916413
6	274630	50.31	0.45522259991877
6	275187	50.41	0.6429186360954
6	275744	50.51	0.79689476026594
6	276301	50.61	0.92320881195107
6	276858	50.71	1.0268303295014
6	277415	50.81	1.1118360652539
6	277972	50.91	1.1815703760583
6	278537	51.01	1.2387767993697
6	279094	51.11	1.2857059914751
6	279651	51.21	1.3242042744334
6	280208	51.31	1.3557862754059
6	280765	51.41	1.3816945162102
6	281322	51.51	1.4029482975072
6	281879	51.61	1.4203838008605
6	282436	51.71	1.4346869863935
6	282993	51.81	1.4464205803286
6	283550	51.91	1.451343416759
6	284115	52.01	1.3970980464567
6	284672	52.11	1.2788610331157
6	285229	52.21	1.1057253168584
6	285786	52.31	0.88697396956547
6	286343	52.41	0.63193765077223
6	286900	52.51	0.34986266971266
6	287457	52.61	0.052484224297444
6	288014	52.71	-0.22642220601448
6	288571	52.81	-0.45522262194524
6	289128	52.91	-0.64291865416521
6	289693	53.01	-0.79689477508964
6	290250	53.11	-0.9232088241113
6	290807	53.21	-1.0268303394767
6	291364	53.31	-1.1118360734379
6	291921	53.41	-1.1815703827718
6	292478	53.51	-1.2387768048768
6	293035	53.61	-1.2857059959927
6	293592	53.71	-1.3242042781389
6	294149	53.81	-1.3557862784456
6	294706	53.91	-1.3816945187042
6	295271	54.01	-1.4029482995529
6	295828	54.11	-1.4203838025381
6	296385	54.21	-1.4346869877695
6	296942	54.31	-1.4464205814569
6	297499	54.41	-1.4513434180639
6	298056	54.51	-1.397098050975
6	298613	54.61	-1.2788610401895
6	299170	54.71	-1.1057253259011
6	299727	54.81	-0.88697398006055
6	300284	54.91	-0.63193766227059
6	300849	55.01	-0.34986268182813
6	301406	55.11	-0.052484236443462
6	301963	55.21	0.22642219605018
6	302520	55.31	0.4552226137708
6	303077	55.41	0.6429186474584
6	303634	55.51	0.79689476958791
6	304191	55.61	0.92320881959758
6	304748	55.71	1.0268303357741
6	305305	55.81	1.1118360704
6	305862	55.91	1.18157038028
6	306427	56.01	1.2387768028326
6	306984	56.11	1.2857059943155
6	307541	56.21	1.3242042767637
6	308098	56.31	1.355786277318
6	308655	56.41	1.3816945177794
6	309212	56.51	1.4029482987947
6	309769	56.61	1.420383801916
6	310326	56.71	1.4346869872593
6	310883	56.81	1.4464205810384
6	311440	56.91	1.4513434175793
6	312005	57.01	1.3970980492978
6	312562	57.11	1.2788610375637
6	313119	57.21	1.1057253225449
6	313676	57.31	0.886973976165
6	314233	57.41	0.63193765800307
6	314790	57.51	0.34986267733181
6	315347	57.61	0.052484231935068
6	315904	57.71	-0.22642219974927
6	316461	57.81	-0.45522261680553
6	317018	57.91	-0.64291864994814
6	317583	58.01	-0.79689477163036
6	318140	58.11	-0.92320882127339
6	318697	58.21	-1.026830337149
6	319254	58.31	-1.1118360715276
6	319811	58.41	-1.1815703812051
6	320368	58.51	-1.2387768035918
6	320925	58.61	-1.2857059949379
6	321482	58.71	-1.3242042772738
6	322039	58.81	-1.3557862777361
6	322596	58.91	-1.3816945181215
6	323161	59.01	-1.4029482990757
6	323718	59.11	-1.4203838021466
6	324275	59.21	-1.4346869874483
6	324832	59.31	-1.4464205811937
6	325389	59.41	-1.4513434177591
6	325946	59.51	-1.3970980499199
6	326503	59.61	-1.2788610385382
6	327060	59.71	-1.1057253237905
6	327617	59.81	-0.88697397761095
6	328174	59.91	-0.63193765958722
5	232	1.11	36.55
5	788	1.21	36.55
5	1344	1.31	36.55
5	1900	1.41	36.55
5	2456	1.51	36.55
5	3012	1.61	36.55
5	3568	1.71	36.55
5	4124	1.81	36.55
5	4680	1.91	36.55
5	5244	2.01	36.55
5	5800	2.11	36.55
5	6356	2.21	36.55
5	6912	2.31	36.55
5	7468	2.41	36.55
5	8024	2.51	36.55
5	8580	2.61	36.55
5	9136	2.71	36.55
5	9692	2.81	36.55
5	10248	2.91	36.55
5	10812	3.01	36.55
5	11368	3.11	36.55
5	11924	3.21	36.55
5	12480	3.31	36.55
5	13036	3.41	36.55
5	13592	3.51	36.55
5	14148	3.61	36.55
5	14704	3.71	36.55
5	15260	3.81	36.55
5	15816	3.91	36.55
5	16380	4.01	36.55
5	16936	4.11	36.55
5	17492	4.21	36.55
5	18048	4.31	36.55
5	18604	4.41	36.55
5	19160	4.51	36.55
5	19716	4.61	36.55
5	20272	4.71	36.55
5	20828	4.81	36.55
5	21384	4.91	36.55
5	21949	5.01	36.55
5	22506	5.11	36.55
5	23063	5.21	36.55
5	23620	5.31	36.55
5	24177	5.41	36.55
5	24734	5.51	36.55
5	25291	5.61	36.55
5	25848	5.71	36.55
5	26405	5.81	36.55
5	26962	5.91	36.55
5	27527	6.01	36.55
5	28084	6.11	36.55
5	28641	6.21	36.55
5	29198	6.31	36.55
5	29755	6.41	36.55
5	30312	6.51	36.55
5	30869	6.61	36.55
5	31426	6.71	36.55
5	31983	6.81	36.55
5	32540	6.91	36.55
5	33105	7.01	36.55
5	33662	7.11	36.55
5	34219	7.21	36.55
5	34776	7.31	36.55
5	35333	7.41	36.55
5	35890	7.51	36.55
5	36447	7.61	36.55
5	37004	7.71	36.55
5	37561	7.81	36.55
5	38118	7.91	36.55
5	38683	8.01	36.55
5	39240	8.11	36.55
5	39797	8.21	36.55
5	40354	8.31	36.55
5	40911	8.41	36.55
5	41468	8.51	36.55
5	42025	8.61	36.55
5	42582	8.71	36.55
5	43139	8.81	36.55
5	43696	8.91	36.55
5	44261	9.01	36.55
5	44818	9.11	36.55
5	45375	9.21	36.55
5	45932	9.31	36.55
5	46489	9.41	36.55
5	47046	9.51	36.55
5	47603	9.61	36.55
5	48160	9.71	36.55
5	48717	9.81	36.55
5	49274	9.91	36.55
5	49839	10.01	36.55
5	50396	10.11	36.55
5	50953	10.21	36.55
5	51510	10.31	36.55
5	52067	10.41	36.55
5	52624	10.51	36.55
5	53181	10.61	36.55
5	53738	10.71	36.55
5	54295	10.81	36.55
5	54852	10.91	36.55
5	55417	11.01	36.55
5	55974	11.11	36.55
5	56531	11.21	36.55
5	57088	11.31	36.55
5	57645	11.41	36.55
5	58202	11.51	36.55
5	58759	11.61	36.55
5	59316	11.71	36.55
5	59873	11.81	36.55
5	60430	11.91	36.55
5	60995	12.01	36.55
5	61552	12.11	36.55
5	62109	12.21	36.55
5	62666	12.31	36.55
5	63223	12.41	36.55
5	63780	12.51	36.55
5	64337	12.61	36.55
5	64894	12.71	36.55
5	65451	12.81	36.55
5	66008	12.91	36.55
5	66573	13.01	36.55
5	67130	13.11	36.55
5	67687	13.21	36.55
5	68244	13.31	36.55
5	68801	13.41	36.55
5	69358	13.51	36.55
5	69915	13.61	36.55
5	70472	13.71	36.55
5	71029	13.81	36.55
5	71586	13.91	36.55
5	72151	14.01	36.55
5	72708	14.11	36.55
5	73265	14.21	36.55
5	73822	14.31	36.55
5	74379	14.41	36.55
5	74936	14.51	36.55
5	75493	14.61	36.55
5	76050	14.71	36.55
5	76607	14.81	36.55
5	77164	14.91	36.55
5	77729	15.01	36.55
5	78286	15.11	36.55
5	78843	15.21	36.55
5	79400	15.31	36.55
5	79957	15.41	36.55
5	80514	15.51	36.55
5	81071	15.61	36.55
5	81628	15.71	36.55
5	82185	15.81	36.55
5	82742	15.91	36.55
5	83307	16.01	36.55
5	83864	16.11	36.55
5	84421	16.21	36.55
5	84978	16.31	36.55
5	85535	16.41	36.55
5	86092	16.51	36.55
5	86649	16.61	36.55
5	87206	16.71	36.55
5	87763	16.81	36.55
5	88320	16.91	36.55
5	88885	17.01	36.55
5	89442	17.11	36.55
5	89999	17.21	36.55
5	90556	17.31	36.55
5	91113	17.41	36.55
5	91670	17.51	36.55
5	92227	17.61	36.55
5	92784	17.71	36.55
5	93341	17.81	36.55
5	93898	17.91	36.55
5	94463	18.01	36.55
5	95020	18.11	36.55
5	95577	18.21	36.55
5	96134	18.31	36.55
5	96691	18.41	36.55
5	97248	18.51	36.55
5	97805	18.61	36.55
5	98362	18.71	36.55
5	98919	18.81	36.55
5	99476	18.91	36.55
5	100041	19.01	36.55
5	100598	19.11	36.55
5	101155	19.21	36.55
5	101712	19.31	36.55
5	102269	19.41	36.55
5	102826	19.51	36.55
5	103383	19.61	36.55
5	103940	19.71	36.55
5	104497	19.81	36.55
5	105054	19.91	36.55
5	105619	20.01	36.55
5	106176	20.11	36.55
5	106733	20.21	36.55
5	107290	20.31	36.55
5	107847	20.41	36.55
5	108404	20.51	36.55
5	108961	20.61	36.55
5	109518	20.71	36.55
5	110075	20.81	36.55
5	110632	20.91	36.55
5	111197	21.01	36.55
5	111754	21.11	36.55
5	112311	21.21	36.55
5	112868	21.31	36.55
5	113425	21.41	36.55
5	113982	21.51	36.55
5	114539	21.61	36.55
5	115096	21.71	36.55
5	115653	21.81	36.55
5	116210	21.91	36.55
5	116775	22.01	36.55
5	117332	22.11	36.55
5	117889	22.21	36.55
5	118446	22.31	36.55
5	119003	22.41	36.55
5	119560	22.51	36.55
5	120117	22.61	36.55
5	120674	22.71	36.55
5	121231	22.81	36.55
5	121788	22.91	36.55
5	122353	23.01	36.55
5	122910	23.11	36.55
5	123467	23.21	36.55
5	124024	23.31	36.55
5	124581	23.41	36.55
5	125138	23.51	36.55
5	125695	23.61	36.55
5	126252	23.71	36.55
5	126809	23.81	36.55
5	127366	23.91	36.55
5	127931	24.01	36.55
5	128488	24.11	36.55
5	129045	24.21	36.55
5	129602	24.31	36.55
5	130159	24.41	36.55
5	130716	24.51	36.55
5	131273	24.61	36.55
5	131830	24.71	36.55
5	132387	24.81	36.55
5	132944	24.91	36.55
5	133509	25.01	36.55
5	134066	25.11	36.55
5	134623	25.21	36.55
5	135180	25.31	36.55
5	135737	25.41	36.55
5	136294	25.51	36.55
5	136851	25.61	36.55
5	137408	25.71	36.55
5	137965	25.81	36.55
5	138522	25.91	36.55
5	139087	26.01	36.55
5	139644	26.11	36.55
5	140201	26.21	36.55
5	140758	26.31	36.55
5	141315	26.41	36.55
5	141872	26.51	36.55
5	142429	26.61	36.55
5	142986	26.71	36.55
5	143543	26.81	36.55
5	144100	26.91	36.55
5	144665	27.01	36.55
5	145222	27.11	36.55
5	145779	27.21	36.55
5	146336	27.31	36.55
5	146893	27.41	36.55
5	147450	27.51	36.55
5	148007	27.61	36.55
5	148564	27.71	36.55
5	149121	27.81	36.55
5	149678	27.91	36.55
5	150243	28.01	36.55
5	150800	28.11	36.55
5	151357	28.21	36.55
5	151914	28.31	36.55
5	152471	28.41	36.55
5	153028	28.51	36.55
5	153585	28.61	36.55
5	154142	28.71	36.55
5	154699	28.81	36.55
5	155256	28.91	36.55
5	155821	29.01	36.55
5	156378	29.11	36.55
5	156935	29.21	36.55
5	157492	29.31	36.55
5	158049	29.41	36.55
5	158606	29.51	36.55
5	159163	29.61	36.55
5	159720	29.71	36.55
5	160277	29.81	36.55
5	160834	29.91	36.55
5	161399	30.01	36.55
5	161956	30.11	36.55
5	162513	30.21	36.55
5	163070	30.31	36.55
5	163627	30.41	36.55
5	164184	30.51	36.55
5	164741	30.61	36.55
5	165298	30.71	36.55
5	165855	30.81	36.55
5	166412	30.91	36.55
5	166977	31.01	36.55
5	167534	31.11	36.55
5	168091	31.21	36.55
5	168648	31.31	36.55
5	169205	31.41	36.55
5	169762	31.51	36.55
5	170319	31.61	36.55
5	170876	31.71	36.55
5	171433	31.81	36.55
5	171990	31.91	36.55
5	172555	32.01	36.55
5	173112	32.11	36.55
5	173669	32.21	36.55
5	174226	32.31	36.55
5	174783	32.41	36.55
5	175340	32.51	36.55
5	175897	32.61	36.55
5	176454	32.71	36.55
5	177011	32.81	36.55
5	177568	32.91	36.55
5	178133	33.01	36.55
5	178690	33.11	36.55
5	179247	33.21	36.55
5	179804	33.31	36.55
5	180361	33.41	36.55
5	180918	33.51	36.55
5	181475	33.61	36.55
5	182032	33.71	36.55
5	182589	33.81	36.55
5	183146	33.91	36.55
5	183711	34.01	36.55
5	184268	34.11	36.55
5	184825	34.21	36.55
5	185382	34.31	36.55
5	185939	34.41	36.55
5	186496	34.51	36.55
5	187053	34.61	36.55
5	187610	34.71	36.55
5	188167	34.81	36.55
5	188724	34.91	36.55
5	189289	35.01	36.55
5	189846	35.11	36.55
5	190403	35.21	36.55
5	190960	35.31	36.55
5	191517	35.41	36.55
5	192074	35.51	36.55
5	192631	35.61	36.55
5	193188	35.71	36.55
5	193745	35.81	36.55
5	194302	35.91	36.55
5	194867	36.01	36.55
5	195424	36.11	36.55
5	195981	36.21	36.55
5	196538	36.31	36.55
5	197095	36.41	36.55
5	197652	36.51	36.55
5	198209	36.61	36.55
5	198766	36.71	36.55
5	199323	36.81	36.55
5	199880	36.91	36.55
5	200445	37.01	36.55
5	201002	37.11	36.55
5	201559	37.21	36.55
5	202116	37.31	36.55
5	202673	37.41	36.55
5	203230	37.51	36.55
5	203787	37.61	36.55
5	204344	37.71	36.55
5	204901	37.81	36.55
5	205458	37.91	36.55
5	206023	38.01	36.55
5	206580	38.11	36.55
5	207137	38.21	36.55
5	207694	38.31	36.55
5	208251	38.41	36.55
5	208808	38.51	36.55
5	209365	38.61	36.55
5	209922	38.71	36.55
5	210479	38.81	36.55
5	211036	38.91	36.55
5	211601	39.01	36.55
5	212158	39.11	36.55
5	212715	39.21	36.55
5	213272	39.31	36.55
5	213829	39.41	36.55
5	214386	39.51	36.55
5	214943	39.61	36.55
5	215500	39.71	36.55
5	216057	39.81	36.55
5	216614	39.91	36.55
5	217179	40.01	36.55
5	217736	40.11	36.55
5	218293	40.21	36.55
5	218850	40.31	36.55
5	219407	40.41	36.55
5	219964	40.51	36.55
5	220521	40.61	36.55
5	221078	40.71	36.55
5	221635	40.81	36.55
5	222192	40.91	36.55
5	222757	41.01	36.55
5	223314	41.11	36.55
5	223871	41.21	36.55
5	224428	41.31	36.55
5	224985	41.41	36.55
5	225542	41.51	36.55
5	226099	41.61	36.55
5	226656	41.71	36.55
5	227213	41.81	36.55
5	227770	41.91	36.55
5	228335	42.01	36.55
5	228892	42.11	36.55
5	229449	42.21	36.55
5	230006	42.31	36.55
5	230563	42.41	36.55
5	231120	42.51	36.55
5	231677	42.61	36.55
5	232234	42.71	36.55
5	232791	42.81	36.55
5	233348	42.91	36.55
5	233913	43.01	36.55
5	234470	43.11	36.55
5	235027	43.21	36.55
5	235584	43.31	36.55
5	236141	43.41	36.55
5	236698	43.51	36.55
5	237255	43.61	36.55
5	237812	43.71	36.55
5	238369	43.81	36.55
5	238926	43.91	36.55
5	239491	44.01	36.55
5	240048	44.11	36.55
5	240605	44.21	36.55
5	241162	44.31	36.55
5	241719	44.41	36.55
5	242276	44.51	36.55
5	242833	44.61	36.55
5	243390	44.71	36.55
5	243947	44.81	36.55
5	244504	44.91	36.55
5	245069	45.01	36.55
5	245626	45.11	36.55
5	246183	45.21	36.55
5	246740	45.31	36.55
5	247297	45.41	36.55
5	247854	45.51	36.55
5	248411	45.61	36.55
5	248968	45.71	36.55
5	249525	45.81	36.55
5	250082	45.91	36.55
5	250647	46.01	36.55
5	251204	46.11	36.55
5	251761	46.21	36.55
5	252318	46.31	36.55
5	252875	46.41	36.55
5	253432	46.51	36.55
5	253989	46.61	36.55
5	254546	46.71	36.55
5	255103	46.81	36.55
5	255660	46.91	36.55
5	256225	47.01	36.55
5	256782	47.11	36.55
5	257339	47.21	36.55
5	257896	47.31	36.55
5	258453	47.41	36.55
5	259010	47.51	36.55
5	259567	47.61	36.55
5	260124	47.71	36.55
5	260681	47.81	36.55
5	261238	47.91	36.55
5	261803	48.01	36.55
5	262360	48.11	36.55
5	262917	48.21	36.55
5	263474	48.31	36.55
5	264031	48.41	36.55
5	264588	48.51	36.55
5	265145	48.61	36.55
5	265702	48.71	36.55
5	266259	48.81	36.55
5	266816	48.91	36.55
5	267381	49.01	36.55
5	267938	49.11	36.55
5	268495	49.21	36.55
5	269052	49.31	36.55
5	269609	49.41	36.55
5	270166	49.51	36.55
5	270723	49.61	36.55
5	271280	49.71	36.55
5	271837	49.81	36.55
5	272394	49.91	36.55
5	272959	50.01	36.55
5	273516	50.11	36.55
5	274073	50.21	36.55
5	274630	50.31	36.55
5	275187	50.41	36.55
5	275744	50.51	36.55
5	276301	50.61	36.55
5	276858	50.71	36.55
5	277415	50.81	36.55
5	277972	50.91	36.55
5	278537	51.01	36.55
5	279094	51.11	36.55
5	279651	51.21	36.55
5	280208	51.31	36.55
5	280765	51.41	36.55
5	281322	51.51	36.55
5	281879	51.61	36.55
5	282436	51.71	36.55
5	282993	51.81	36.55
5	283550	51.91	36.55
5	284115	52.01	36.55
5	284672	52.11	36.55
5	285229	52.21	36.55
5	285786	52.31	36.55
5	286343	52.41	36.55
5	286900	52.51	36.55
5	287457	52.61	36.55
5	288014	52.71	36.55
5	288571	52.81	36.55
5	289128	52.91	36.55
5	289693	53.01	36.55
5	290250	53.11	36.55
5	290807	53.21	36.55
5	291364	53.31	36.55
5	291921	53.41	36.55
5	292478	53.51	36.55
5	293035	53.61	36.55
5	293592	53.71	36.55
5	294149	53.81	36.55
5	294706	53.91	36.55
5	295271	54.01	36.55
5	295828	54.11	36.55
5	296385	54.21	36.55
5	296942	54.31	36.55
5	297499	54.41	36.55
5	298056	54.51	36.55
5	298613	54.61	36.55
5	299170	54.71	36.55
5	299727	54.81	36.55
5	300284	54.91	36.55
5	300849	55.01	36.55
5	301406	55.11	36.55
5	301963	55.21	36.55
5	302520	55.31	36.55
5	303077	55.41	36.55
5	303634	55.51	36.55
5	304191	55.61	36.55
5	304748	55.71	36.55
5	305305	55.81	36.55
5	305862	55.91	36.55
5	306427	56.01	36.55
5	306984	56.11	36.55
5	307541	56.21	36.55
5	308098	56.31	36.55
5	308655	56.41	36.55
5	309212	56.51	36.55
5	309769	56.61	36.55
5	310326	56.71	36.55
5	310883	56.81	36.55
5	311440	56.91	36.55
5	312005	57.01	36.55
5	312562	57.11	36.55
5	313119	57.21	36.55
5	313676	57.31	36.55
5	314233	57.41	36.55
5	314790	57.51	36.55
5	315347	57.61	36.55
5	315904	57.71	36.55
5	316461	57.81	36.55
5	317018	57.91	36.55
5	317583	58.01	36.55
5	318140	58.11	36.55
5	318697	58.21	36.55
5	319254	58.31	36.55
5	319811	58.41	36.55
5	320368	58.51	36.55
5	320925	58.61	36.55
5	321482	58.71	36.55
5	322039	58.81	36.55
5	322596	58.91	36.55
5	323161	59.01	36.55
5	323718	59.11	36.55
5	324275	59.21	36.55
5	324832	59.31	36.55
5	325389	59.41	36.55
5	325946	59.51	36.55
5	326503	59.61	36.55
5	327060	59.71	36.55
5	327617	59.81	36.55
5	328174	59.91	36.55
4	232	1.11	142.1155250552
4	788	1.21	144.33774719441
4	1344	1.31	146.55996933634
4	1900	1.41	148.78219148193
4	2456	1.51	151.00441363191
4	3012	1.61	153.22663578678
4	3568	1.71	155.44885794688
4	4124	1.81	157.67108011237
4	4680	1.91	159.8933022833
4	5244	2.01	162.11552445962
4	5800	2.11	164.33774664119
4	6356	2.21	166.55996882778
4	6912	2.31	168.78219101914
4	7468	2.41	171.00441321497
4	8024	2.51	173.22663541492
4	8580	2.61	175.44885761867
4	9136	2.71	177.67107982586
4	9692	2.81	179.89330203614
4	10248	2.91	182.11552424917
4	10812	3.01	184.33774646463
4	11368	3.11	186.55996868219
4	11924	3.21	188.78219090157
4	12480	3.31	191.00441312248
4	13036	3.41	193.22663534468
4	13592	3.51	195.44885756794
4	14148	3.61	197.67107979204
4	14704	3.71	199.8933020168
4	15260	3.81	202.11552424206
4	15816	3.91	204.33774646767
4	16380	4.01	206.55996869351
4	16936	4.11	208.78219091948
4	17492	4.21	211.00441314547
4	18048	4.31	213.22663537143
4	18604	4.41	215.44885759729
4	19160	4.51	217.671079823
4	19716	4.61	219.89330204852
4	20272	4.71	222.11552427384
4	20828	4.81	224.33774649893
4	21384	4.91	226.55996872378
4	21949	5.01	228.78219094839
4	22506	5.11	231.00441453805
4	23063	5.21	233.22686462917
4	23620	5.31	235.45031481345
4	24177	5.41	237.67598971854
4	24734	5.51	239.90543932817
4	25291	5.61	242.14039850479
4	25848	5.71	244.38255273296
4	26405	5.81	246.63330405312
4	26962	5.91	248.8938027586
4	27527	6.01	251.16499249054
4	28084	6.11	253.44764736337
4	28641	6.21	255.74240242054
4	29198	6.31	258.04977861886
4	29755	6.41	260.37020332437
4	30312	6.51	262.7040270944
4	30869	6.61	265.05150767886
4	31426	6.71	267.41259864481
4	31983	6.81	269.78677347571
4	32540	6.91	272.17304339523
4	33105	7.01	274.56999369055
4	33662	7.11	276.97582724719
4	34219	7.21	279.3884141392
4	34776	7.31	281.80534610723
4	35333	7.41	284.22399521433
4	35890	7.51	286.64164853324
4	36447	7.61	289.05580825762
4	37004	7.71	291.46440724217
4	37561	7.81	293.86574970774
4	38118	7.91	296.2584445248
4	38683	8.01	298.64135048262
4	39240	8.11	301.01353139089
4	39797	8.21	303.3742192475
4	40354	8.31	305.72278402321
4	40911	8.41	308.05870887462
4	41468	8.51	310.38156981012
4	42025	8.61	312.6910190089
4	42582	8.71	314.98677113678
4	43139	8.81	317.26859212031
4	43696	8.91	319.53628993777
4	44261	9.01	321.78970706446
4	44818	9.11	324.02871427523
4	45375	9.21	326.2532055605
4	45932	9.31	328.46309395544
4	46489	9.41	330.65830811864
4	47046	9.51	332.83879178807
4	47603	9.61	335.00474026412
4	48160	9.71	337.15701486811
4	48717	9.81	339.29710736244
4	49274	9.91	341.42703486016
4	49839	10.01	343.54923520076
4	50396	10.11	345.6664641011
4	50953	10.21	347.78169432041
4	51510	10.31	349.89785407263
4	52067	10.41	352.0174646669
4	52624	10.51	354.14260092908
4	53181	10.61	356.27496493904
4	53738	10.71	358.4159529951
4	54295	10.81	360.56671054823
4	54852	10.91	362.72817726716
4	55417	11.01	364.90112400755
4	55974	11.11	367.08618313954
4	56531	11.21	369.28387342687
4	57088	11.31	371.49462043653
4	57645	11.41	373.71877328165
4	58202	11.51	375.9566183566
4	58759	11.61	378.20839060451
4	59316	11.71	380.47428276059
4	59873	11.81	382.75445293483
4	60430	11.91	385.04901603308
4	60995	12.01	387.35776702558
4	61552	12.11	389.67986059636
4	62109	12.21	392.01386764407
4	62666	12.31	394.3578622781
4	63223	12.41	396.7095106097
4	63780	12.51	399.06615997526
4	64337	12.61	401.42492816659
4	64894	12.71	403.78292643456
4	65451	12.81	406.13760900473
4	66008	12.91	408.48687677234
4	66573	13.01	410.82900774039
4	67130	13.11	413.16258927155
4	67687	13.21	415.48646251118
4	68244	13.31	417.79967679486
4	68801	13.41	420.10145224665
4	69358	13.51	422.39114909665
4	69915	13.61	424.66824251069
4	70472	13.71	426.93230194197
4	71029	13.81	429.18297419216
4	71586	13.91	431.41996951559
4	72151	14.01	433.64305021991
4	72708	14.11	435.8520213146
4	73265	14.21	438.04672283951
4	73822	14.31	440.22702357161
4	74379	14.41	442.39281664336
4	74936	14.51	444.54416859262
4	75493	14.61	446.68169472541
4	76050	14.71	448.80663877634
4	76607	14.81	450.92078656276
4	77164	14.91	453.02637156888
4	77729	15.01	455.12598039678
4	78286	15.11	457.22245896485
4	78843	15.21	459.31875014683
4	79400	15.31	461.41756309595
4	79957	15.41	463.52113954795
4	80514	15.51	465.63131850694
4	81071	15.61	467.74960859683
4	81628	15.71	469.87724741465
4	82185	15.81	472.01525022105
4	82742	15.91	474.16444988335
4	83307	16.01	476.32552964286
4	83864	16.11	478.49904999542
4	84421	16.21	480.68547074283
4	84978	16.31	482.88516908274
4	85535	16.41	485.09845444858
4	86092	16.51	487.32558068355
4	86649	16.61	489.56675602747
4	87206	16.71	491.82215130953
4	87763	16.81	494.09190666919
4	88320	16.91	496.37613605511
4	88885	17.01	498.67474296331
4	89442	17.11	500.98702902353
4	89999	17.21	503.31168057453
4	90556	17.31	505.64685831946
4	91113	17.41	507.9902897463
4	91670	17.51	510.33936178045
4	92227	17.61	512.69121295452
4	92784	17.71	515.04291762342
4	93341	17.81	517.39182352298
4	93898	17.91	519.73573868138
4	94463	18.01	522.07286491825
4	95020	18.11	524.40172709937
4	95577	18.21	526.72111510092
4	96134	18.31	529.03003619985
4	96691	18.41	531.32767601753
4	97248	18.51	533.61336647979
4	97805	18.61	535.88655953316
4	98362	18.71	538.14680558288
4	98919	18.81	540.39373580468
4	99476	18.91	542.62704763418
4	100041	19.01	544.8464928632
4	100598	19.11	547.05186787459
4	101155	19.21	549.24300563137
4	101712	19.31	551.41976910504
4	102269	19.41	553.58204680321
4	102826	19.51	555.72992389181
4	103383	19.61	557.8640679078
4	103940	19.71	559.98576658536
4	104497	19.81	562.09683938422
4	105054	19.91	564.19954433101
4	105619	20.01	566.29648466497
4	106176	20.11	568.39051606437
4	106733	20.21	570.48457052116
4	107290	20.31	572.58132133148
4	107847	20.41	574.68297886633
4	108404	20.51	576.79135639981
4	108961	20.61	578.90794144824
4	109518	20.71	581.03395429312
4	110075	20.81	583.17039599027
4	110632	20.91	585.31808775417
4	111197	21.01	587.4777032667
4	111754	21.11	589.64979518164
4	112311	21.21	591.8348168676
4	112868	21.31	594.03314024472
4	113425	21.41	596.24507041708
4	113982	21.51	598.47085767629
4	114539	21.61	600.71070734863
4	115096	21.71	602.96478787318
4	115653	21.81	605.23323742864
4	116210	21.91	607.51616842103
4	116775	22.01	609.81349155814
4	117332	22.11	612.12452788024
4	117889	22.21	614.44798002711
4	118446	22.31	616.78202117168
4	119003	22.41	619.12438790501
4	119560	22.51	621.47247333051
4	120117	22.61	623.82341961371
4	120674	22.71	626.17429710729
4	121231	22.81	628.52244030619
4	121788	22.91	630.86564565561
4	122353	23.01	633.2021054731
4	122910	23.11	635.53033682943
4	123467	23.21	637.84912320614
4	124024	23.31	640.15746663437
4	124581	23.41	642.45454843207
4	125138	23.51	644.73969699481
4	125695	23.61	647.01236137304
4	126252	23.71	649.27208959622
4	126809	23.81	651.51851089111
4	127366	23.91	653.75132109449
4	127931	24.01	655.97027068658
4	128488	24.11	658.17515497428
4	129045	24.21	660.36580603792
4	129602	24.31	662.54208612491
4	130159	24.41	664.70388316767
4	130716	24.51	666.8512849268
4	131273	24.61	668.98496612291
4	131830	24.71	671.1062205439
4	132387	24.81	673.21687228266
4	132944	24.91	675.31918275064
4	133509	25.01	677.41575748701
4	134066	25.11	679.50945352593
4	134623	25.21	681.60320138461
4	135180	25.31	683.69966945915
4	135737	25.41	685.80106383362
4	136294	25.51	687.90919426538
4	136851	25.61	690.02554538579
4	137408	25.71	692.15133510965
4	137965	25.81	694.28756255132
4	138522	25.91	696.43504733253
4	139087	26.01	698.59446182861
4	139644	26.11	700.7663576215
4	140201	26.21	702.95118720052
4	140758	26.31	705.14932176448
4	141315	26.41	707.36106582574
4	141872	26.51	709.58666919047
4	142429	26.61	711.82633678673
4	142986	26.71	714.08023672693
4	143543	26.81	716.34850692177
4	144100	26.91	718.63125956442
4	144665	27.01	720.92840632589
4	145222	27.11	723.23927091241
4	145779	27.21	725.56255821039
4	146336	27.31	727.89644311226
4	146893	27.41	730.2386634653
4	147450	27.51	732.5866132266
4	148007	27.61	734.937435065
4	148564	27.71	737.28819878608
4	149121	27.81	739.63623706665
4	149678	27.91	741.97934476123
4	150243	28.01	744.31571288246
4	150800	28.11	746.64385743065
4	151357	28.21	748.96256100919
4	151914	28.31	751.27082492881
4	152471	28.41	753.5678299165
4	153028	28.51	755.852903883
4	153585	28.61	758.12549548107
4	154142	28.71	760.3851524139
4	154699	28.81	762.6315036406
4	155256	28.91	764.86424477839
4	155821	29.01	767.08312612738
4	156378	29.11	769.2879428467
4	156935	29.21	771.47852689547
4	157492	29.31	773.65474042164
4	158049	29.41	775.81647127869
4	158606	29.51	777.96380758465
4	159163	29.61	780.09742504949
4	159720	29.71	782.21861829484
4	160277	29.81	784.32921205171
4	160834	29.91	786.43146819773
4	161399	30.01	788.52799258887
4	161956	30.11	790.62164244609
4	162513	30.21	792.71534808358
4	163070	30.31	794.81177722269
4	163627	30.41	796.91313535724
4	164184	30.51	799.0212317603
4	164741	30.61	801.137550666
4	165298	30.71	803.26330966325
4	165855	30.81	805.39950759906
4	166412	30.91	807.54696387587
4	166977	31.01	809.70635068908
4	167534	31.11	811.87821947305
4	168091	31.21	814.063022596
4	168648	31.31	816.26113115746
4	169205	31.41	818.47284958828
4	169762	31.51	820.69842762778
4	170319	31.61	822.93807014922
4	170876	31.71	825.19194521999
4	171433	31.81	827.46019071392
4	171990	31.91	829.74291879484
4	172555	32.01	832.04004126645
4	173112	32.11	834.35088220209
4	173669	32.21	836.6741467976
4	174226	32.31	839.00801018221
4	174783	32.41	841.3502103762
4	175340	32.51	843.69814145424
4	175897	32.61	846.04894615446
4	176454	32.71	848.39969420713
4	177011	32.81	850.74771803864
4	177568	32.91	853.09081228446
4	178133	33.01	855.42716777754
4	178690	33.11	857.75530037075
4	179247	33.21	860.07399254655
4	179804	33.31	862.38224551646
4	180361	33.41	864.67923992606
4	180918	33.51	866.96430361937
4	181475	33.61	869.23688519433
4	182032	33.71	871.49653230924
4	182589	33.81	873.74287388633
4	183146	33.91	875.97560551258
4	183711	34.01	878.19447746331
4	184268	34.11	880.39928487727
4	184825	34.21	882.58985969692
4	185382	34.31	884.76606405651
4	185939	34.41	886.92778579862
4	186496	34.51	889.07511309053
4	187053	34.61	891.20872177846
4	187610	34.71	893.32990659885
4	188167	34.81	895.44049237059
4	188724	34.91	897.54274103553
4	189289	35.01	899.63925849325
4	189846	35.11	901.73290199044
4	190403	35.21	903.82660181333
4	190960	35.31	905.92302559035
4	191517	35.41	908.02437873402
4	192074	35.51	910.13247045074
4	192631	35.61	912.2487849199
4	193188	35.71	914.37453968556
4	193745	35.81	916.51073355789
4	194302	35.91	918.65818590915
4	194867	36.01	920.81756890994
4	195424	36.11	922.9894339743
4	195981	36.21	925.1742334538
4	196538	36.31	927.37233843426
4	197095	36.41	929.58405333531
4	197652	36.51	931.80962788709
4	198209	36.61	934.04926695528
4	198766	36.71	936.3031386011
4	199323	36.81	938.57138069328
4	199880	36.91	940.85410539162
4	200445	37.01	943.15122451808
4	201002	37.11	945.46206219658
4	201559	37.21	947.78532366556
4	202116	37.31	950.11918408687
4	202673	37.41	952.46138150461
4	203230	37.51	954.80931000962
4	203787	37.61	957.16011234962
4	204344	37.71	959.51085824447
4	204901	37.81	961.8588800861
4	205458	37.91	964.20197247979
4	206023	38.01	966.53832623375
4	206580	38.11	968.86645718055
4	207137	38.21	971.18514778599
4	207694	38.31	973.49339924793
4	208251	38.41	975.79039220075
4	208808	38.51	978.07545447925
4	209365	38.61	980.34803467386
4	209922	38.71	982.60768043667
4	210479	38.81	984.85402068483
4	211036	38.91	987.08675100118
4	211601	39.01	989.3056216576
4	212158	39.11	991.51042779005
4	212715	39.21	993.70100133869
4	213272	39.31	995.87720443588
4	213829	39.41	998.03892492271
4	214386	39.51	1000.1862509732
4	214943	39.61	1002.3198584524
4	215500	39.71	1004.4410421125
4	216057	39.81	1006.5516267846
4	216614	39.91	1008.6538744192
4	217179	40.01	1010.7503909221
4	217736	40.11	1012.8440335434
4	218293	40.21	1014.9377325655
4	218850	40.31	1017.0341556041
4	219407	40.41	1019.1355080604
4	219964	40.51	1021.2435991318
4	220521	40.61	1023.3599129899
4	221078	40.71	1025.4856671728
4	221635	40.81	1027.6218604856
4	222192	40.91	1029.7693122962
4	222757	41.01	1031.9286947719
4	223314	41.11	1034.1005593241
4	223871	41.21	1036.2853583018
4	224428	41.31	1038.4834627891
4	224985	41.41	1040.695177204
4	225542	41.51	1042.9207512755
4	226099	41.61	1045.1603898681
4	226656	41.71	1047.4142610422
4	227213	41.81	1049.6825026659
4	227770	41.91	1051.9652268984
4	228335	42.01	1054.2623455642
4	228892	42.11	1056.5731827941
4	229449	42.21	1058.8964438326
4	230006	42.31	1061.2303038458
4	230563	42.41	1063.5725008812
4	231120	42.51	1065.9204290318
4	231677	42.61	1068.2712310468
4	232234	42.71	1070.6219766445
4	232791	42.81	1072.969998212
4	233348	42.91	1075.3130903507
4	233913	43.01	1077.6494438651
4	234470	43.11	1079.9775745852
4	235027	43.21	1082.2962649743
4	235584	43.31	1084.6045162286
4	236141	43.41	1086.9015089808
4	236698	43.51	1089.1865710645
4	237255	43.61	1091.459151069
4	237812	43.71	1093.7187966456
4	238369	43.81	1095.9651367107
4	238926	43.91	1098.1978668467
4	239491	44.01	1100.4167373248
4	240048	44.11	1102.6215432808
4	240605	44.21	1104.8121166544
4	241162	44.31	1106.9883195777
4	241719	44.41	1109.1500398917
4	242276	44.51	1111.2973657712
4	242833	44.61	1113.430973084
4	243390	44.71	1115.5521565843
4	243947	44.81	1117.6627411049
4	244504	44.91	1119.7649885977
4	245069	45.01	1121.8615049691
4	245626	45.11	1123.9551474697
4	246183	45.21	1126.0488463816
4	246740	45.31	1128.1452693184
4	247297	45.41	1130.2466216801
4	247854	45.51	1132.3547126626
4	248411	45.61	1134.4710264366
4	248968	45.71	1136.5967805392
4	249525	45.81	1138.7329737749
4	250082	45.91	1140.8804255111
4	250647	46.01	1143.0398079145
4	251204	46.11	1145.2116723961
4	251761	46.21	1147.3964713047
4	252318	46.31	1149.5945757241
4	252875	46.41	1151.8062900721
4	253432	46.51	1154.0318640774
4	253989	46.61	1156.2715026045
4	254546	46.71	1158.5253737137
4	255103	46.81	1160.7936152729
4	255660	46.91	1163.0763394412
4	256225	47.01	1165.3734580435
4	256782	47.11	1167.6842952117
4	257339	47.21	1170.0075561908
4	257896	47.31	1172.3414161478
4	258453	47.41	1174.6836131306
4	259010	47.51	1177.0315412324
4	259567	47.61	1179.3823432026
4	260124	47.71	1181.7330887594
4	260681	47.81	1184.0811102892
4	261238	47.91	1186.4242023927
4	261803	48.01	1188.7605558742
4	262360	48.11	1191.088686563
4	262917	48.21	1193.4073769224
4	263474	48.31	1195.7156281481
4	264031	48.41	1198.0126208726
4	264588	48.51	1200.2976829295
4	265145	48.61	1202.5702629078
4	265702	48.71	1204.8299084587
4	266259	48.81	1207.0762484987
4	266816	48.91	1209.3089786098
4	267381	49.01	1211.5278490634
4	267938	49.11	1213.7326549951
4	268495	49.21	1215.9232283446
4	269052	49.31	1218.099431244
4	269609	49.41	1220.2611515341
4	270166	49.51	1222.4084773901
4	270723	49.61	1224.5420846799
4	271280	49.71	1226.6632681582
4	271837	49.81	1228.773852658
4	272394	49.91	1230.8761001312
4	272959	50.01	1232.9726164845
4	273516	50.11	1235.0662589685
4	274073	50.21	1237.1599578652
4	274630	50.31	1239.2563807881
4	275187	50.41	1241.3577331367
4	275744	50.51	1243.4658241069
4	276301	50.61	1245.5821378693
4	276858	50.71	1247.7078919609
4	277415	50.81	1249.844085186
4	277972	50.91	1251.9915369119
4	278537	51.01	1254.1509193054
4	279094	51.11	1256.3227837772
4	279651	51.21	1258.5075826763
4	280208	51.31	1260.7056870864
4	280765	51.41	1262.9174014251
4	281322	51.51	1265.1429754213
4	281879	51.61	1267.3826139394
4	282436	51.71	1269.6364850397
4	282993	51.81	1271.90472659
4	283550	51.91	1274.1874507495
4	284115	52.01	1276.4845693431
4	284672	52.11	1278.7954065027
4	285229	52.21	1281.1186674737
4	285786	52.31	1283.4525274229
4	286343	52.41	1285.7947243984
4	286900	52.51	1288.1426524936
4	287457	52.61	1290.4934544576
4	288014	52.71	1292.8442000087
4	288571	52.81	1295.1922215334
4	289128	52.91	1297.535313632
4	289693	53.01	1299.8716671089
4	290250	53.11	1302.1997977935
4	290807	53.21	1304.5184881488
4	291364	53.31	1306.8267393705
4	291921	53.41	1309.1237320913
4	292478	53.51	1311.4087941444
4	293035	53.61	1313.6813741191
4	293592	53.71	1315.9410196665
4	294149	53.81	1318.187359703
4	294706	53.91	1320.4200898107
4	295271	54.01	1322.6389602609
4	295828	54.11	1324.8437661892
4	296385	54.21	1327.0343395354
4	296942	54.31	1329.2105424315
4	297499	54.41	1331.3722627184
4	298056	54.51	1333.5195885711
4	298613	54.61	1335.6531958578
4	299170	54.71	1337.7743793331
4	299727	54.81	1339.88496383
4	300284	54.91	1341.9872113005
4	300849	55.01	1344.0837276513
4	301406	55.11	1346.177370133
4	301963	55.21	1348.2710690276
4	302520	55.31	1350.3674919485
4	303077	55.41	1352.4688442954
4	303634	55.51	1354.5769352639
4	304191	55.61	1356.6932490248
4	304748	55.71	1358.8190031148
4	305305	55.81	1360.9551963384
4	305862	55.91	1363.1026480629
4	306427	56.01	1365.262030455
4	306984	56.11	1367.4338949255
4	307541	56.21	1369.6186938233
4	308098	56.31	1371.8167982321
4	308655	56.41	1374.0285125696
4	309212	56.51	1376.2540865645
4	309769	56.61	1378.4937250814
4	310326	56.71	1380.7475961804
4	310883	56.81	1383.0158377295
4	311440	56.91	1385.2985618878
4	312005	57.01	1387.5956804801
4	312562	57.11	1389.9065176386
4	313119	57.21	1392.2297786084
4	313676	57.31	1394.5636385566
4	314233	57.41	1396.9058355311
4	314790	57.51	1399.2537636254
4	315347	57.61	1401.6045655885
4	315904	57.71	1403.9553111389
4	316461	57.81	1406.3033326628
4	317018	57.91	1408.6464247608
4	317583	58.01	1410.9827782371
4	318140	58.11	1413.310908921
4	318697	58.21	1415.6295992757
4	319254	58.31	1417.9378504969
4	319811	58.41	1420.2348432172
4	320368	58.51	1422.5199052698
4	320925	58.61	1424.792485244
4	321482	58.71	1427.052130791
4	322039	58.81	1429.298470827
4	322596	58.91	1431.5312009342
4	323161	59.01	1433.7500713839
4	323718	59.11	1435.9548773118
4	324275	59.21	1438.1454506575
4	324832	59.31	1440.3216535532
4	325389	59.41	1442.4833738396
4	325946	59.51	1444.6306996919
4	326503	59.61	1446.7643069781
4	327060	59.71	1448.885490453
4	327617	59.81	1450.9960749495
4	328174	59.91	1453.0983224196
3	232	1.11	22.222221380388
3	788	1.21	22.222221400033
3	1344	1.31	22.222221430895
3	1900	1.41	22.222221470405
3	2456	1.51	22.222221516302
3	3012	1.61	22.222221566615
3	3568	1.71	22.222221619648
3	4124	1.81	22.222221673961
3	4680	1.91	22.22222172835
3	5244	2.01	22.222221781827
3	5800	2.11	22.222221833594
3	6356	2.21	22.222221883033
3	6912	2.31	22.222221929673
3	7468	2.41	22.222221973181
3	8024	2.51	22.22222201334
3	8580	2.61	22.22222205003
3	9136	2.71	22.222222083218
3	9692	2.81	22.222222112937
3	10248	2.91	22.222222139276
3	10812	3.01	22.222222162372
3	11368	3.11	22.222222182391
3	11924	3.21	22.222222199529
3	12480	3.31	22.222222213995
3	13036	3.41	22.222222226009
3	13592	3.51	22.222222235797
3	14148	3.61	22.222222243584
3	14704	3.71	22.222222249588
3	15260	3.81	22.222222254023
3	15816	3.91	22.22222225709
3	16380	4.01	22.222222258982
3	16936	4.11	22.222222259874
3	17492	4.21	22.22222225993
3	18048	4.31	22.2222222593
3	18604	4.41	22.222222258118
3	19160	4.51	22.222222256505
3	19716	4.61	22.222222254566
3	20272	4.71	22.222222252396
3	20828	4.81	22.222222250075
3	21384	4.91	22.222222247671
3	21949	5.01	22.222222245242
3	22506	5.11	22.222290507125
3	23063	5.21	22.226504077641
3	23620	5.31	22.240220338524
3	24177	5.41	22.267500757653
3	24734	5.51	22.311166408855
3	25291	5.61	22.372508246834
3	25848	5.71	22.449772173803
3	26405	5.81	22.540103259952
3	26962	5.91	22.641153967919
3	27527	6.01	22.750998499419
3	28084	6.11	22.868057029105
3	28641	6.21	22.991033549938
3	29198	6.31	23.118864884746
3	29755	6.41	23.250678857945
3	30312	6.51	23.385758398132
3	30869	6.61	23.522833432233
3	31426	6.71	23.657796347927
3	31983	6.81	23.785829581157
3	32540	6.91	23.902426182221
3	33105	7.01	24.003469344582
3	33662	7.11	24.085300499944
3	34219	7.21	24.144775797594
3	34776	7.31	24.179310887614
3	35333	7.41	24.18693697487
3	35890	7.51	24.167648012512
3	36447	7.61	24.124876590017
3	37004	7.71	24.062841371271
3	37561	7.81	23.985003130021
3	38118	7.91	23.894200906128
3	38683	8.01	23.792763701114
3	39240	8.11	23.682602107418
3	39797	8.21	23.565283476299
3	40354	8.31	23.442093581698
3	40911	8.41	23.314087206082
3	41468	8.51	23.182129638453
3	42025	8.61	23.046930717174
3	42582	8.71	22.90907275694
3	43139	8.81	22.769033458618
3	43696	8.91	22.627204703306
3	44261	9.01	22.483907969993
3	44818	9.11	22.339406983423
3	45375	9.21	22.193918089742
3	45932	9.31	22.047618768141
3	46489	9.41	21.900654613374
3	47046	9.51	21.753242751854
3	47603	9.61	21.609901385757
3	48160	9.71	21.477532883517
3	48717	9.81	21.362073971413
3	49274	9.91	21.268410541013
3	49839	10.01	21.200386497448
3	50396	10.11	21.160826131916
3	50953	10.21	21.151517345739
3	51510	10.31	21.170320646314
3	52067	10.41	21.212693656992
3	52624	10.51	21.274402039281
3	53181	10.61	21.351972160799
3	53738	10.71	21.442554433126
3	54295	10.81	21.543811201247
3	54852	10.91	21.653824773844
3	55417	11.01	21.771021976106
3	55974	11.11	21.894112256751
3	56531	11.21	22.022036914228
3	57088	11.31	22.15392744452
3	57645	11.41	22.289071371833
3	58202	11.51	22.426884217862
3	58759	11.61	22.566886506821
3	59316	11.71	22.708684901566
3	59873	11.81	22.851956728639
3	60430	11.91	22.996030636022
3	60995	12.01	23.135871741664
3	61552	12.11	23.265091831195
3	62109	12.21	23.37815370659
3	62666	12.31	23.470398479481
3	63223	12.41	23.538058615042
3	63780	12.51	23.578257676094
3	64337	12.61	23.589039899577
3	64894	12.71	23.571771817424
3	65451	12.81	23.530658220569
3	66008	12.91	23.469982996268
3	66573	13.01	23.39326042415
3	67130	13.11	23.303373437532
3	67687	13.21	23.20268704586
3	68244	13.31	23.093141380613
3	68801	13.41	22.97632802535
3	69358	13.51	22.853552632938
3	69915	13.61	22.725886293488
3	70472	13.71	22.594207673951
3	71029	13.81	22.459237587264
3	71586	13.91	22.321567351098
3	72151	14.01	22.181682051897
3	72708	14.11	22.039979629502
3	73265	14.21	21.896786533182
3	73822	14.31	21.752370565044
3	74379	14.41	21.606990468916
3	74936	14.51	21.46377531614
3	75493	14.61	21.329003640752
3	76050	14.71	21.208703411767
3	76607	14.81	21.107966374326
3	77164	14.91	21.030937646541
3	77729	15.01	20.980819133086
3	78286	15.11	20.959864153028
3	78843	15.21	20.968113302143
3	79400	15.31	21.001828232614
3	79957	15.41	21.056433973525
3	80514	15.51	21.128177455263
3	81071	15.61	21.213979853553
3	81628	15.71	21.311315460134
3	82185	15.81	21.418112314529
3	82742	15.91	21.532670687482
3	83307	16.01	21.65359620899
3	83864	16.11	21.779745009989
3	84421	16.21	21.910178719438
3	84978	16.31	22.04412754625
3	85535	16.41	22.180959993615
3	86092	16.51	22.320158014196
3	86649	16.61	22.461296628745
3	87206	16.71	22.604027206256
3	87763	16.81	22.748063747876
3	88320	16.91	22.893121062247
3	88885	17.01	23.035415892366
3	89442	17.11	23.168450652444
3	89999	17.21	23.28637522879
3	90556	17.31	23.384255235879
3	91113	17.41	23.458083279214
3	91670	17.51	23.504776599185
3	92227	17.61	23.522191087294
3	92784	17.71	23.510795234811
3	93341	17.81	23.474498911582
3	93898	17.91	23.417775529511
3	94463	18.01	23.344294844447
3	95020	18.11	23.257067334362
3	95577	18.21	23.158562639743
3	96134	18.31	23.050806725964
3	96691	18.41	22.935461590275
3	97248	18.51	22.813890649294
3	97805	18.61	22.687212379529
3	98362	18.71	22.556344321276
3	98919	18.81	22.422039177162
3	99476	18.91	22.284914425505
3	100041	19.01	22.145476613593
3	100598	19.11	22.004141286635
3	101155	19.21	21.861249336433
3	101712	19.31	21.717080413001
3	102269	19.41	21.571909863106
3	102826	19.51	21.429278340793
3	103383	19.61	21.295604178514
3	103940	19.71	21.176803340552
3	104497	19.81	21.077868481133
3	105054	19.91	21.002857998561
3	105619	20.01	20.954898781713
3	106176	20.11	20.936175392548
3	106733	20.21	20.946407816827
3	107290	20.31	20.981749723707
3	107847	20.41	21.03769015195
3	108404	20.51	21.110528542171
3	108961	20.61	21.197229146774
3	109518	20.71	21.295301595376
3	110075	20.81	21.402702916871
3	110632	20.91	21.517757163382
3	111197	21.01	21.639089473919
3	111754	21.11	21.765571983607
3	112311	21.21	21.896279450413
3	112868	21.31	22.030452853606
3	113425	21.41	22.167469531823
3	113982	21.51	22.306818685871
3	114539	21.61	22.448081282503
3	115096	21.71	22.590913568504
3	115653	21.81	22.735033546511
3	116210	21.91	22.880162447437
3	116775	22.01	23.022670267421
3	117332	22.11	23.156108357089
3	117889	22.21	23.274585173836
3	118446	22.31	23.373129675149
3	119003	22.41	23.447702381669
3	119560	22.51	23.495192775121
[...]
166	325433	59.41212832384	7
166	325990	59.512126915625	7
166	326547	59.612138505916	7
166	327104	59.712137094638	7
166	327661	59.812135681721	7
166	328218	59.912134267112	7
165	1070	1.262217851281	7
165	1626	1.362216952043	7
165	2182	1.462216052805	7
165	2738	1.562215153567	7
165	3294	1.662214254329	7
165	3850	1.762213355091	7
165	4406	1.862212455853	7
165	4962	1.962211556615	7
165	5526	2.062210657377	7
165	6082	2.162209758139	7
165	6638	2.262221858901	7
165	7194	2.362220959663	7
165	7750	2.462220060425	7
165	8306	2.562219161187	7
165	8862	2.662218261949	7
165	9418	2.762217362711	7
165	9974	2.862216463473	7
165	10530	2.962215564235	7
165	11094	3.062214664997	7
165	11650	3.162213765759	7
165	12206	3.262212866521	7
165	12762	3.362211967283	7
165	13318	3.462211068045	7
165	13874	3.562210168807	7
165	14430	3.662222269569	7
165	14986	3.762221370331	7
165	15542	3.862220471093	7
165	16098	3.962219571855	7
165	16662	4.062218672617	7
165	17218	4.162217773379	7
165	17774	4.262216874141	7
165	18330	4.362215974903	7
165	18886	4.462215075665	7
165	19442	4.562214176427	7
165	19998	4.662213277189	7
165	20554	4.762212377951	7
165	21110	4.862211478713	7
165	21666	4.962210579475	7
165	22231	5.062222680237	7
165	22788	5.162221780999	7
165	23345	5.262220881764	7
165	23902	5.362219982541	7
165	24459	5.462219083339	7
165	25016	5.562218184178	7
165	25573	5.662217285076	7
165	26130	5.762216386054	7
165	26687	5.862215487134	7
165	27244	5.962214588326	7
165	27809	6.062213689648	7
165	28366	6.16221279111	7
165	28923	6.262211892722	7
165	29480	6.362210994493	7
165	30037	6.462210096427	7
165	30594	6.562222198537	7
165	31151	6.662221300823	7
165	31708	6.762220403291	7
165	32265	6.862219505937	7
165	32822	6.962218608755	7
165	33387	7.06221771173	7
165	33944	7.162216814847	7
165	34501	7.262215918088	7
165	35058	7.362215021424	7
165	35615	7.462214124828	7
165	36172	7.562213228269	7
165	36729	7.662212331719	7
165	37286	7.762211435151	7
165	37843	7.862210538546	7
165	38400	7.962222641882	7
165	38965	8.062221745146	7
165	39522	8.162220848323	7
165	40079	8.262219951403	7
165	40636	8.362219054374	7
165	41193	8.462218157226	7
165	41750	8.562217259955	7
165	42307	8.66221636255	7
165	42864	8.762215465004	7
165	43421	8.862214567312	7
165	43978	8.962213669467	7
165	44543	9.062212771462	7
165	45100	9.162211873294	7
165	45657	9.26221097496	7
165	46214	9.362210076452	7
165	46771	9.462222177765	7
165	47328	9.562221278895	7
165	47885	9.662220379843	7
165	48442	9.762219480613	7
165	48999	9.862218581215	7
165	49556	9.96221768167	7
165	50121	10.062216781997	7
165	50678	10.162215882227	7
165	51235	10.262214982391	7
165	51792	10.362214082523	7
165	52349	10.462213182648	7
165	52906	10.562212282795	7
165	53463	10.662211382984	7
165	54020	10.762210483235	7
165	54577	10.86222258356	7
165	55134	10.962221683977	7
165	55699	11.062220784493	7
165	56256	11.162219885121	7
165	56813	11.262218985867	7
165	57370	11.362218086741	7
165	57927	11.462217187751	7
165	58484	11.562216288902	7
165	59041	11.662215390201	7
165	59598	11.762214491654	7
165	60155	11.862213593264	7
165	60712	11.962212695039	7
165	61277	12.062211796978	7
165	61834	12.162210899077	7
165	62391	12.262210001327	7
165	62948	12.362222103709	7
165	63505	12.462221206203	7
165	64062	12.56222030878	7
165	64619	12.66221941141	7
165	65176	12.762218514065	7
165	65733	12.862217616712	7
165	66290	12.962216719328	7
165	66855	13.062215821889	7
165	67412	13.162214924378	7
165	67969	13.262214026778	7
165	68526	13.36221312908	7
165	69083	13.462212231271	7
165	69640	13.562211333341	7
165	70197	13.66221043528	7
165	70754	13.762222537081	7
165	71311	13.862221638738	7
165	71868	13.962220740246	7
165	72433	14.062219841595	7
165	72990	14.162218942782	7
165	73547	14.262218043804	7
165	74104	14.362217144651	7
165	74661	14.462216245323	7
165	75218	14.562215345813	7
165	75775	14.662214446127	7
165	76332	14.762213546272	7
165	76889	14.862212646265	7
165	77446	14.962211746126	7
165	78011	15.062210845881	7
165	78568	15.162209945562	7
165	79125	15.262222045197	7
165	79682	15.362221144819	7
165	80239	15.462220244457	7
165	80796	15.562219344131	7
165	81353	15.662218443861	7
165	81910	15.762217543664	7
165	82467	15.862216643554	7
165	83024	15.962215743542	7
165	83589	16.06221484364	7
165	84146	16.162213943855	7
165	84703	16.262213044197	7
165	85260	16.362212144675	7
165	85817	16.462211245293	7
165	86374	16.562210346058	7
165	86931	16.662222446977	7
165	87488	16.762221548054	7
165	88045	16.862220649295	7
165	88602	16.962219750705	7
165	89167	17.062218852286	7
165	89724	17.162217954035	7
165	90281	17.262217055942	7
165	90838	17.362216157992	7
165	91395	17.462215260163	7
165	91952	17.562214362429	7
165	92509	17.662213464759	7
165	93066	17.762212567122	7
165	93623	17.862211669488	7
165	94180	17.962210771831	7
165	94745	18.062209874129	7
165	95302	18.162221976362	7
165	95859	18.262221078514	7
165	96416	18.362220180573	7
165	96973	18.462219282528	7
165	97530	18.562218384366	7
165	98087	18.66221748608	7
165	98644	18.76221658766	7
165	99201	18.862215689099	7
165	99758	18.962214790391	7
165	100323	19.062213891529	7
165	100880	19.162212992511	7
165	101437	19.262212093327	7
165	101994	19.362211193975	7
165	102551	19.462210294447	7
165	103108	19.562222394745	7
165	103665	19.66222149487	7
165	104222	19.76222059483	7
165	104779	19.862219694643	7
165	105336	19.962218794329	7
165	105901	20.062217893913	7
165	106458	20.162216993426	7
165	107015	20.262216092901	7
165	107572	20.362215192367	7
165	108129	20.462214291852	7
165	108686	20.562213391376	7
165	109243	20.662212490962	7
165	109800	20.762211590624	7
165	110357	20.862210690376	7
165	110914	20.962209790228	7
165	111479	21.062221890192	7
165	112036	21.162220990277	7
165	112593	21.26222009049	7
165	113150	21.362219190843	7
165	113707	21.462218291337	7
165	114264	21.562217391982	7
165	114821	21.662216492783	7
165	115378	21.762215593744	7
165	115935	21.862214694871	7
165	116492	21.962213796168	7
165	117057	22.062212897638	7
165	117614	22.162211999277	7
165	118171	22.262211101078	7
165	118728	22.362210203024	7
165	119285	22.462222305093	7
165	119842	22.56222140726	7
165	120399	22.662220509494	7
165	120956	22.762219611764	7
165	121513	22.86221871404	7
165	122070	22.962217816295	7
165	122635	23.062216918504	7
165	123192	23.162216020653	7
165	123749	23.262215122721	7
165	124306	23.362214224698	7
165	124863	23.462213326572	7
165	125420	23.562212428331	7
165	125977	23.662211529965	7
165	126534	23.762210631467	7
165	127091	23.862222732831	7
165	127648	23.962221834049	7
165	128213	24.062220935114	7
165	128770	24.162220036022	7
165	129327	24.262219136768	7
165	129884	24.362218237345	7
165	130441	24.462217337749	7
165	130998	24.56221643798	7
165	131555	24.662215538037	7
165	132112	24.762214637932	7
165	132669	24.86221373768	7
165	133226	24.962212837301	7
165	133791	25.062211936824	7
165	134348	25.162211036276	7
165	134905	25.262210135692	7
165	135462	25.3622222351	7
165	136019	25.462221334528	7
165	136576	25.562220433998	7
165	137133	25.66221953353	7
165	137690	25.762218633137	7
165	138247	25.862217732836	7
165	138804	25.962216832636	7
165	139369	26.062215932549	7
165	139926	26.162215032585	7
165	140483	26.26221413275	7
165	141040	26.362213233054	7
165	141597	26.4622123335	7
165	142154	26.562211434097	7
165	142711	26.662210534851	7
165	143268	26.762222635766	7
165	143825	26.862221736846	7
165	144382	26.962220838101	7
165	144947	27.062219939527	7
165	145504	27.162219041124	7
165	146061	27.262218142883	7
165	146618	27.362217244787	7
165	147175	27.462216346815	7
165	147732	27.56221544894	7
165	148289	27.662214551133	7
165	148846	27.762213653364	7
165	149403	27.8622127556	7
165	149960	27.962211857817	7
165	150525	28.062210959989	7
165	151082	28.162210062099	7
165	151639	28.262222164132	7
165	152196	28.362221266072	7
165	152753	28.462220367908	7
165	153310	28.562219469632	7
165	153867	28.662218571232	7
165	154424	28.7622176727	7
165	154981	28.86221677403	7
165	155538	28.962215875214	7
165	156103	29.062214976247	7
165	156660	29.162214077123	7
165	157217	29.262213177836	7
165	157774	29.362212278382	7
165	158331	29.462211378755	7
165	158888	29.562210478955	7
165	159445	29.662222578983	7
165	160002	29.762221678848	7
165	160559	29.862220778567	7
165	161116	29.962219878161	7
165	161681	30.062218977656	7
165	162238	30.162218077082	7
165	162795	30.262217176472	7
165	163352	30.362216275865	7
165	163909	30.462215375295	7
165	164466	30.5622144748	7
165	165023	30.662213574419	7
165	165580	30.762212674191	7
165	166137	30.862211774154	7
165	166694	30.962210874349	7
165	167259	31.062209974814	7
165	167816	31.162222075589	7
165	168373	31.262221176717	7
165	168930	31.362220278237	7
165	169487	31.46221938019	7
165	170044	31.562218482617	7
165	170601	31.662217585559	7
165	171158	31.762216689059	7
165	171715	31.862215793157	7
165	172272	31.962214897896	7
165	172837	32.062214003315	7
165	173394	32.162213109447	7
165	173951	32.262212216316	7
165	174508	32.36221132393	7
165	175065	32.462210432283	7
165	175622	32.56222254135	7
165	176179	32.662221651089	7
165	176736	32.762220761439	7
165	177293	32.862219872321	7
165	177850	32.962218983646	7
165	178415	33.06221809531	7
165	178972	33.162217207203	7
165	179529	33.262216319207	7
165	180086	33.362215431201	7
165	180643	33.462214543056	7
165	181200	33.562213654643	7
165	181757	33.662212765829	7
165	182314	33.762211876479	7
165	182871	33.862210986451	7
165	183428	33.962210095611	7
165	183993	34.062222203818	7
165	184550	34.162221310931	7
165	185107	34.26222041681	7
165	185664	34.362219521313	7
165	186221	34.462218624299	7
165	186778	34.562217725629	7
165	187335	34.66221682517	7
165	187892	34.762215922801	7
165	188449	34.862215018418	7
165	189006	34.962214111922	7
165	189571	35.062213203246	7
165	190128	35.162212292333	7
165	190685	35.262211379149	7
165	191242	35.362210463677	7
165	191799	35.462222545913	7
165	192356	35.562221625867	7
165	192913	35.662220703557	7
165	193470	35.762219779007	7
165	194027	35.86221885225	7
165	194584	35.962217923319	7
165	195149	36.062216992261	7
165	195706	36.162216059119	7
165	196263	36.262215123942	7
165	196820	36.362214186783	7
165	197377	36.462213247695	7
165	197934	36.562212306733	7
165	198491	36.662211363957	7
165	199048	36.762210419426	7
165	199605	36.862222473201	7
165	200162	36.962221525346	7
165	200727	37.062220575922	7
165	201284	37.162219624985	7
165	201841	37.262218672582	7
165	202398	37.362217718747	7
165	202955	37.462216763502	7
165	203512	37.562215806845	7
165	204069	37.662214848764	7
165	204626	37.762213889222	7
165	205183	37.862212928172	7
165	205740	37.962211965551	7
165	206305	38.062211001287	7
165	206862	38.162210035299	7
165	207419	38.2622220675	7
165	207976	38.3622210978	7
165	208533	38.4622201261	7
165	209090	38.562219152304	7
165	209647	38.662218176311	7
165	210204	38.762217198017	7
165	210761	38.862216217316	7
165	211318	38.962215234102	7
165	211883	39.062214248271	7
165	212440	39.162213259714	7
165	212997	39.262212268322	7
165	213554	39.362211273991	7
165	214111	39.462210276611	7
165	214668	39.562222276075	7
165	215225	39.662221272288	7
165	215782	39.762220265161	7
165	216339	39.862219254621	7
165	216896	39.962218240605	7
165	217461	40.062217223082	7
165	218018	40.162216202025	7
165	218575	40.262215177435	7
165	219132	40.362214149331	7
165	219689	40.462213117739	7
165	220246	40.562212082703	7
165	220803	40.662211044274	7
165	221360	40.762210002507	7
165	221917	40.862221957471	7
165	222474	40.962220909233	7
165	223039	41.062219857868	7
165	223596	41.162218803453	7
165	224153	41.262217746071	7
165	224710	41.362216685803	7
165	225267	41.462215622734	7
165	225824	41.562214556953	7
165	226381	41.662213488549	7
165	226938	41.762212417612	7
165	227495	41.862211344233	7
165	228052	41.962210268506	7
165	228617	42.062222190521	7
165	229174	42.162221110364	7
165	229731	42.262220028112	7
165	230288	42.362218943828	7
165	230845	42.46221785756	7
165	231402	42.562216769338	7
165	231959	42.662215679172	7
165	232516	42.762214587058	7
165	233073	42.862213492971	7
165	233630	42.962212396878	7
165	234195	43.062211298731	7
165	234752	43.162210198479	7
165	235309	43.262222096057	7
165	235866	43.3622209914	7
165	236423	43.462219884438	7
165	236980	43.562218775095	7
165	237537	43.662217663296	7
165	238094	43.762216548958	7
165	238651	43.862215432001	7
165	239208	43.962214312344	7
165	239773	44.062213189901	7
165	240330	44.162212064587	7
165	240887	44.262210936316	7
165	241444	44.362209805003	7
165	242001	44.462221670561	7
165	242558	44.562220532906	7
165	243115	44.662219391959	7
165	243672	44.762218247652	7
165	244229	44.862217099932	7
165	244786	44.962215948758	7
165	245351	45.062214794111	7
165	245908	45.162213635991	7
165	246465	45.262212474413	7
165	247022	45.362211309411	7
165	247579	45.462210141035	7
165	248136	45.562221969341	7
165	248693	45.662220794398	7
165	249250	45.762219616278	7
165	249807	45.862218435065	7
165	250364	45.962217250843	7
165	250929	46.062216063702	7
165	251486	46.162214873734	7
165	252043	46.262213681035	7
165	252600	46.362212485702	7
165	253157	46.462211287835	7
165	253714	46.562210087537	7
165	254271	46.662221884908	7
165	254828	46.762220680052	7
165	255385	46.862219473072	7
165	255942	46.962218264077	7
165	256507	47.062217053168	7
165	257064	47.162215840443	7
165	257621	47.262214625988	7
165	258178	47.362213409881	7
165	258735	47.462212192176	7
165	259292	47.562210972918	7
165	259849	47.662209752127	7
165	260406	47.762221529807	7
165	260963	47.862220305945	7
165	261520	47.962219080515	7
165	262085	48.062217853481	7
165	262642	48.162216624798	7
165	263199	48.262215394414	7
165	263756	48.36221416227	7
165	264313	48.462212928302	7
165	264870	48.562211692448	7
165	265427	48.662210454632	7
165	265984	48.762222214787	7
165	266541	48.862220972837	7
165	267098	48.962219728706	7
165	267663	49.062218482316	7
165	268220	49.16221723359	7
165	268777	49.262215982448	7
165	269334	49.362214728811	7
165	269891	49.462213472597	7
165	270448	49.562212213728	7
165	271005	49.662210952132	7
165	271562	49.762209687744	7
165	272119	49.862221420516	7
165	272676	49.962220150414	7
165	273241	50.062218877421	7
165	273798	50.162217601541	7
165	274355	50.262216322795	7
165	274912	50.362215041224	7
165	275469	50.462213756877	7
165	276026	50.562212469816	7
165	276583	50.662211180114	7
165	277140	50.762209887847	7
165	277697	50.862221593099	7
165	278254	50.96222029596	7
165	278819	51.062218996519	7
165	279376	51.162217694876	7
165	279933	51.262216391126	7
165	280490	51.362215085369	7
165	281047	51.462213777708	7
165	281604	51.562212468244	7
165	282161	51.662211157084	7
165	282718	51.762209844332	7
165	283275	51.862221530095	7
165	283832	51.962220214478	7
165	284397	52.062218897589	7
165	284954	52.162217579523	7
165	285511	52.262216260371	7
165	286068	52.362214940207	7
165	286625	52.46221361909	7
165	287182	52.562212297064	7
165	287739	52.662210974153	7
165	288296	52.762209650358	7
165	288853	52.862221325668	7
165	289410	52.962220000054	7
165	289975	53.062218673485	7
165	290532	53.162217345912	7
165	291089	53.262216017287	7
165	291646	53.362214687547	7
165	292203	53.462213356628	7
165	292760	53.562212024469	7
165	293317	53.662210690995	7
165	293874	53.762222356135	7
165	294431	53.862221019816	7
165	294988	53.962219681959	7
165	295553	54.062218342487	7
165	296110	54.162217001319	7
165	296667	54.262215658378	7
165	297224	54.362214313581	7
165	297781	54.462212966845	7
165	298338	54.562211618093	7
165	298895	54.662210267248	7
165	299452	54.762221914248	7
165	300009	54.86222055904	7
165	300566	54.962219201592	7
165	301131	55.062217841885	7
165	301688	55.162216479919	7
165	302245	55.262215115716	7
165	302802	55.362213749311	7
165	303359	55.462212380756	7
165	303916	55.562211010108	7
165	304473	55.662209637438	7
165	305030	55.762221262823	7
165	305587	55.862219886343	7
165	306144	55.962218508086	7
165	306709	56.062217128141	7
165	307266	56.162215746602	7
165	307823	56.262214363564	7
165	308380	56.362212979126	7
165	308937	56.462211593388	7
165	309494	56.562210206449	7
165	310051	56.662221818411	7
165	310608	56.762220429378	7
165	311165	56.862219039454	7
165	311722	56.962217648742	7
165	312287	57.062216257344	7
165	312844	57.162214865359	7
165	313401	57.26221347287	7
165	313958	57.362212079951	7
165	314515	57.462210686658	7
165	315072	57.562222293034	7
165	315629	57.662220899093	7
165	316186	57.762219504843	7
165	316743	57.862218110264	7
165	317300	57.962216715329	7
165	317865	58.062215319998	7
165	318422	58.162213924224	7
165	318979	58.262212527951	7
165	319536	58.362211131118	7
165	320093	58.46220973366	7
165	320650	58.562221335508	7
165	321207	58.662219936588	7
165	321764	58.762218536825	7
165	322321	58.862217136138	7
165	322878	58.962215734451	7
165	323443	59.062214331682	7
165	324000	59.16221292775	7
165	324557	59.262211522569	7
165	325114	59.362210116057	7
165	325671	59.462221708128	7
165	326228	59.5622202987	7
165	326785	59.662218887695	7
165	327342	59.762217475049	7
165	327899	59.862216060704	7
165	328456	59.962214644624	7
164	5175	2	0
164	10743	3	0
164	16311	4	0
164	21880	5	0
164	27457	6	0
164	33035	7	0
164	38613	8	0
164	44191	9	0
164	49769	10	0
164	55347	11	0
164	60925	12	0
164	66503	13	0
164	72081	14	0
164	77659	15	0
164	83237	16	0
164	88815	17	0
164	94393	18	0
164	99971	19	0
164	105549	20	0
164	111127	21	0
164	116705	22	0
164	122283	23	0
164	127861	24	0
164	133439	25	0
164	139017	26	0
164	144595	27	0
164	150173	28	0
164	155751	29	0
164	161329	30	0
164	166907	31	0
164	172485	32	0
164	178063	33	0
164	183641	34	0
164	189219	35	0
164	194797	36	0
164	200375	37	0
164	205953	38	0
164	211531	39	0
164	217109	40	0
164	222687	41	0
164	228265	42	0
164	233843	43	0
164	239421	44	0
164	244999	45	0
164	250577	46	0
164	256155	47	0
164	261733	48	0
164	267311	49	0
164	272889	50	0
164	278467	51	0
164	284045	52	0
164	289623	53	0
164	295201	54	0
164	300779	55	0
164	306357	56	0
164	311935	57	0
164	317513	58	0
164	323091	59	0
164	328669	60	0
163	5175	2	0.023297
163	10743	3	0.02625
163	16311	4	0.02625
163	21880	5	0.02625
163	27457	6	0.02625
163	33035	7	0.02625
163	38613	8	0.02625
163	44191	9	0.02625
163	49769	10	0.02625
163	55347	11	0.02625
163	60925	12	0.02625
163	66503	13	0.02625
163	72081	14	0.02625
163	77659	15	0.02625
163	83237	16	0.02625
163	88815	17	0.02625
163	94393	18	0.02625
163	99971	19	0.02625
163	105549	20	0.02625
163	111127	21	0.02625
163	116705	22	0.02625
163	122283	23	0.02625
163	127861	24	0.02625
163	133439	25	0.02625
163	139017	26	0.02625
163	144595	27	0.02625
163	150173	28	0.02625
163	155751	29	0.02625
163	161329	30	0.02625
163	166907	31	0.02625
163	172485	32	0.02625
163	178063	33	0.02625
163	183641	34	0.02625
163	189219	35	0.02625
163	194797	36	0.02625
163	200375	37	0.02625
163	205953	38	0.02625
163	211531	39	0.02625
163	217109	40	0.02625
163	222687	41	0.02625
163	228265	42	0.02625
163	233843	43	0.02625
163	239421	44	0.02625
163	244999	45	0.02625
163	250577	46	0.02625
163	256155	47	0.02625
163	261733	48	0.02625
163	267311	49	0.02625
163	272889	50	0.02625
163	278467	51	0.02625
163	284045	52	0.02625
163	289623	53	0.02625
163	295201	54	0.02625
163	300779	55	0.02625
163	306357	56	0.02625
163	311935	57	0.02625
163	317513	58	0.02625
163	323091	59	0.02625
163	328669	60	0.02625
162	5175	2	7
162	10743	3	7
162	16311	4	7
162	21880	5	7
162	27457	6	7
162	33035	7	7
162	38613	8	7
162	44191	9	7
162	49769	10	7
162	55347	11	7
162	60925	12	7
162	66503	13	7
162	72081	14	7
162	77659	15	7
162	83237	16	7
162	88815	17	7
162	94393	18	7
162	99971	19	7
162	105549	20	7
162	111127	21	7
162	116705	22	7
162	122283	23	7
162	127861	24	7
162	133439	25	7
162	139017	26	7
162	144595	27	7
162	150173	28	7
162	155751	29	7
162	161329	30	7
162	166907	31	7
162	172485	32	7
162	178063	33	7
162	183641	34	7
162	189219	35	7
162	194797	36	7
162	200375	37	7
162	205953	38	7
162	211531	39	7
162	217109	40	7
162	222687	41	7
162	228265	42	7
162	233843	43	7
162	239421	44	7
162	244999	45	7
162	250577	46	7
162	256155	47	7
162	261733	48	7
162	267311	49	7
162	272889	50	7
162	278467	51	7
162	284045	52	7
162	289623	53	7
162	295201	54	7
162	300779	55	7
162	306357	56	7
162	311935	57	7
162	317513	58	7
162	323091	59	7
162	328669	60	7
