file 973901 1501602937                                          
version 2
run SinusoidalJammingDetail-499-20170801-17:55:19-31995
attr CACCSpacing 7
attr attackAcc -30
attr attackPos 7
attr attackSpeed 150
attr attackStart 31.5
attr attacker 1
attr beaconInterval 0.1
attr configname SinusoidalJammingDetail
attr controller 1
attr datetime 20170801-17:55:19
attr experiment SinusoidalJammingDetail
attr fakeAcc "(1 == 4)"
attr fakePos "(1 == 2)"
attr fakeSpeed "(1 == 3)"
attr inifile omnetpp_499.ini
attr iterationvars "$leaderSpeed=120, $controller=1, $CACCSpacing=7, $sController=\"CACC\", $attacker=1, $attackStart=31.5, $attackSpeed=150, $attackPos=7, $attackAcc=-30, $0=7, $1=0, $nCars=8, $platoonSize=8, $nLanes=1, $beaconInterval=0.1, $priority=2, $packetSize=200, $ploegH=0.5, $leaderHeadway=1.2, $fakeSpeed=(1 == 3), $fakeAcc=(1 == 4), $fakePos=(1 == 2)"
attr iterationvarsf leaderSpeed=120,controller=1,CACCSpacing=7,sController=CACC,attacker=1,attackStart=31.5,attackSpeed=150,attackPos=7,attackAcc=-30,7,0,nCars=8,platoonSize=8,nLanes=1,beaconInterval=0.1,priority=2,packetSize=200,ploegH=0.5,leaderHeadway=1.2,fakeSpeed=(1_==_3),fakeAcc=(1_==_4),fakePos=(1_==_2)-
attr leaderHeadway 1.2
attr leaderSpeed 120
attr measurement "$leaderSpeed=120, $controller=1, $CACCSpacing=7, $sController=\"CACC\", $attacker=1, $attackStart=31.5, $attackSpeed=150, $attackPos=7, $attackAcc=-30, $0=7, $1=0, $nCars=8, $platoonSize=8, $nLanes=1, $beaconInterval=0.1, $priority=2, $packetSize=200, $ploegH=0.5, $leaderHeadway=1.2, $fakeSpeed=(1 == 3), $fakeAcc=(1 == 4), $fakePos=(1 == 2)"
attr nCars 8
attr nLanes 1
attr network scenario
attr packetSize 200
attr platoonSize 8
attr ploegH 0.5
attr priority 2
attr processid 31995
attr repetition 4
attr replication #4
attr resultdir results
attr runnumber 499
attr sController "\"CACC\""
attr seedset 4
param **.coreDebug false
param **.debug false
param **.headway 0.1s
param **.numberOfCars 8
param **.numberOfCarsPerPlatoon 8
param **.numberOfLanes 1
param **.numericController 1
param **.traffic.nCars 8
param **.traffic.nLanes 1
param **.traffic.platoonInsertDistance 7m
param **.traffic.platoonInsertHeadway 0s
param **.traffic.platoonInsertSpeed 120kmph
param **.traffic.platoonInsertTime "1 s"
param **.traffic.platoonLeaderHeadway 1.2s
param **.traffic.platoonSize 8
param **.traffic.platooningVType "\"vtypeauto\""
param **.traffic_type "\"PlatoonsTrafficManager\""
param *.**.nic.mac1609_4.bitrate 6Mbps
param *.**.nic.mac1609_4.txPower 100mW
param *.**.nic.mac1609_4.useServiceChannel false
param *.**.nic.phy80211p.analogueModels "xmldoc(\"config.xml\")"
param *.**.nic.phy80211p.decider "xmldoc(\"config.xml\")"
param *.**.nic.phy80211p.maxTXPower 100mW
param *.**.nic.phy80211p.sensitivity -94dBm
param *.**.nic.phy80211p.thermalNoise -95dBm
param *.**.nic.phy80211p.usePropagationDelay true
param *.**.nic.phy80211p.useThermalNoise true
param *.annotations.draw false
param *.connectionManager.alpha 2.0
param *.connectionManager.carrierFrequency "5.890e9 Hz"
param *.connectionManager.pMax 100mW
param *.connectionManager.sat -94dBm
param *.connectionManager.sendDirect true
param *.manager.autoShutdown true
param *.manager.commandLine "\"sumo --remote-port $port --seed $seed --configuration-file $configFile\""
param *.manager.configFile "\"./sumocfg/freeway.sumo.cfg\""
param *.manager.host "\"localhost\""
param *.manager.margin 25
param *.manager.moduleDisplayString "\"\""
param *.manager.moduleName "\"node\""
param *.manager.moduleType "\"Car\""
param *.manager.updateInterval 0.01s
param *.node[*].appl.attackStart 31.5s
param *.node[*].appl.attackerType 1
param *.node[*].appl.simulationDuration "60 s"
param *.node[*].appl_type "\"SimplePlatooningApp\""
param *.node[*].helper.nCars 8
param *.node[*].helper.nLanes 1
param *.node[*].helper.platoonSize 8
param *.node[*].helper_type "\"PositionHelper\""
param *.node[*].mobility.x 0
param *.node[*].mobility.y 0
param *.node[*].mobility.z 1.895
param *.node[*].prot.attackStart 31.5s
param *.node[*].prot.attackerType 1
param *.node[*].prot.attackingNode 3
param *.node[*].prot.beaconingInterval 0.1s
param *.node[*].prot.fakeAcc "(1 == 4)"
param *.node[*].prot.fakePos "(1 == 2)"
param *.node[*].prot.fakeSpeed "(1 == 3)"
param *.node[*].prot.maliciousAcc "-30 mpss"
param *.node[*].prot.maliciousSpeed 150kmph
param *.node[*].prot.packetSize 200
param *.node[*].prot.priority 2
param *.node[*].prot.shiftX "7 m"
param *.node[*].prot.useControllerAcceleration true
param *.node[*].protocol_type "\"SimplePlatooningBeaconing\""
param *.node[*].scenario.accHeadway 0.1s
param *.node[*].scenario.caccC1 0.5
param *.node[*].scenario.caccOmegaN "0.2 Hz"
param *.node[*].scenario.caccSpacing 7m
param *.node[*].scenario.caccXi 1
param *.node[*].scenario.controller "\"CACC\""
param *.node[*].scenario.engineTau "0.5 s"
param *.node[*].scenario.leaderHeadway 1.2s
param *.node[*].scenario.leaderOscillationFrequency "0.2 Hz"
param *.node[*].scenario.leaderSpeed 120kmph
param *.node[*].scenario.oscillationAmplitude "10 kmph"
param *.node[*].scenario.ploegH 0.5s
param *.node[*].scenario.ploegKd 0.7
param *.node[*].scenario.ploegKp 0.2
param *.node[*].scenario.startOscillating "5 s"
param *.node[*].scenario.useRealisticEngine false
param *.node[*].scenario_type "\"SinusoidalScenario\""
param *.node[*].unicast.packetLossRate 0
param *.obstacles.debug false
param *.playgroundSizeX 65000m
param *.playgroundSizeY 25000m
param *.playgroundSizeZ 50m
param *.world.use2D false
param *.world.useTorus false

vector 0  scenario.node[0].appl  distance  ETV
vector 1  scenario.node[0].appl  relativeSpeed  ETV
vector 2  scenario.node[0].appl  nodeId  ETV
vector 6  scenario.node[0].appl  acceleration  ETV
vector 7  scenario.node[0].appl  controllerAcceleration  ETV
vector 3  scenario.node[0].appl  speed  ETV
vector 4  scenario.node[0].appl  posx  ETV
vector 5  scenario.node[0].appl  posy  ETV
vector 22  scenario.node[1].appl  distance  ETV
vector 23  scenario.node[1].appl  relativeSpeed  ETV
vector 24  scenario.node[1].appl  nodeId  ETV
vector 28  scenario.node[1].appl  acceleration  ETV
vector 29  scenario.node[1].appl  controllerAcceleration  ETV
vector 25  scenario.node[1].appl  speed  ETV
vector 26  scenario.node[1].appl  posx  ETV
vector 27  scenario.node[1].appl  posy  ETV
vector 44  scenario.node[2].appl  distance  ETV
vector 45  scenario.node[2].appl  relativeSpeed  ETV
vector 46  scenario.node[2].appl  nodeId  ETV
vector 50  scenario.node[2].appl  acceleration  ETV
vector 51  scenario.node[2].appl  controllerAcceleration  ETV
vector 47  scenario.node[2].appl  speed  ETV
vector 48  scenario.node[2].appl  posx  ETV
vector 49  scenario.node[2].appl  posy  ETV
vector 66  scenario.node[3].appl  distance  ETV
vector 67  scenario.node[3].appl  relativeSpeed  ETV
vector 68  scenario.node[3].appl  nodeId  ETV
vector 72  scenario.node[3].appl  acceleration  ETV
vector 73  scenario.node[3].appl  controllerAcceleration  ETV
vector 69  scenario.node[3].appl  speed  ETV
vector 70  scenario.node[3].appl  posx  ETV
vector 71  scenario.node[3].appl  posy  ETV
vector 88  scenario.node[4].appl  distance  ETV
vector 89  scenario.node[4].appl  relativeSpeed  ETV
vector 90  scenario.node[4].appl  nodeId  ETV
vector 94  scenario.node[4].appl  acceleration  ETV
vector 95  scenario.node[4].appl  controllerAcceleration  ETV
vector 91  scenario.node[4].appl  speed  ETV
vector 92  scenario.node[4].appl  posx  ETV
vector 93  scenario.node[4].appl  posy  ETV
vector 110  scenario.node[5].appl  distance  ETV
vector 111  scenario.node[5].appl  relativeSpeed  ETV
vector 112  scenario.node[5].appl  nodeId  ETV
vector 116  scenario.node[5].appl  acceleration  ETV
vector 117  scenario.node[5].appl  controllerAcceleration  ETV
vector 113  scenario.node[5].appl  speed  ETV
vector 114  scenario.node[5].appl  posx  ETV
vector 115  scenario.node[5].appl  posy  ETV
vector 132  scenario.node[6].appl  distance  ETV
vector 133  scenario.node[6].appl  relativeSpeed  ETV
vector 134  scenario.node[6].appl  nodeId  ETV
vector 138  scenario.node[6].appl  acceleration  ETV
vector 139  scenario.node[6].appl  controllerAcceleration  ETV
vector 135  scenario.node[6].appl  speed  ETV
vector 136  scenario.node[6].appl  posx  ETV
vector 137  scenario.node[6].appl  posy  ETV
vector 154  scenario.node[7].appl  distance  ETV
vector 155  scenario.node[7].appl  relativeSpeed  ETV
vector 156  scenario.node[7].appl  nodeId  ETV
vector 160  scenario.node[7].appl  acceleration  ETV
vector 161  scenario.node[7].appl  controllerAcceleration  ETV
vector 157  scenario.node[7].appl  speed  ETV
vector 158  scenario.node[7].appl  posx  ETV
vector 159  scenario.node[7].appl  posy  ETV
vector 102  scenario.node[4].prot  frontDelay  ETV
vector 100  scenario.node[4].prot  frontDelayId  ETV
vector 35  scenario.node[1].prot  leaderDelay  ETV
vector 33  scenario.node[1].prot  leaderDelayId  ETV
vector 36  scenario.node[1].prot  frontDelay  ETV
vector 34  scenario.node[1].prot  frontDelayId  ETV
vector 57  scenario.node[2].prot  leaderDelay  ETV
vector 55  scenario.node[2].prot  leaderDelayId  ETV
vector 79  scenario.node[3].prot  leaderDelay  ETV
vector 77  scenario.node[3].prot  leaderDelayId  ETV
vector 101  scenario.node[4].prot  leaderDelay  ETV
vector 99  scenario.node[4].prot  leaderDelayId  ETV
vector 123  scenario.node[5].prot  leaderDelay  ETV
vector 121  scenario.node[5].prot  leaderDelayId  ETV
vector 145  scenario.node[6].prot  leaderDelay  ETV
vector 143  scenario.node[6].prot  leaderDelayId  ETV
vector 167  scenario.node[7].prot  leaderDelay  ETV
vector 165  scenario.node[7].prot  leaderDelayId  ETV
vector 80  scenario.node[3].prot  frontDelay  ETV
vector 78  scenario.node[3].prot  frontDelayId  ETV
vector 146  scenario.node[6].prot  frontDelay  ETV
vector 144  scenario.node[6].prot  frontDelayId  ETV
vector 58  scenario.node[2].prot  frontDelay  ETV
vector 56  scenario.node[2].prot  frontDelayId  ETV
vector 124  scenario.node[5].prot  frontDelay  ETV
vector 122  scenario.node[5].prot  frontDelayId  ETV
vector 168  scenario.node[7].prot  frontDelay  ETV
vector 166  scenario.node[7].prot  frontDelayId  ETV
vector 8  scenario.node[0].prot  nodeId  ETV
vector 9  scenario.node[0].prot  busyTime  ETV
vector 10  scenario.node[0].prot  collisions  ETV
vector 30  scenario.node[1].prot  nodeId  ETV
vector 31  scenario.node[1].prot  busyTime  ETV
vector 32  scenario.node[1].prot  collisions  ETV
vector 52  scenario.node[2].prot  nodeId  ETV
vector 53  scenario.node[2].prot  busyTime  ETV
vector 54  scenario.node[2].prot  collisions  ETV
vector 74  scenario.node[3].prot  nodeId  ETV
vector 75  scenario.node[3].prot  busyTime  ETV
vector 76  scenario.node[3].prot  collisions  ETV
vector 96  scenario.node[4].prot  nodeId  ETV
vector 97  scenario.node[4].prot  busyTime  ETV
vector 98  scenario.node[4].prot  collisions  ETV
vector 118  scenario.node[5].prot  nodeId  ETV
vector 119  scenario.node[5].prot  busyTime  ETV
vector 120  scenario.node[5].prot  collisions  ETV
vector 140  scenario.node[6].prot  nodeId  ETV
vector 141  scenario.node[6].prot  busyTime  ETV
vector 142  scenario.node[6].prot  collisions  ETV
vector 162  scenario.node[7].prot  nodeId  ETV
vector 163  scenario.node[7].prot  busyTime  ETV
vector 164  scenario.node[7].prot  collisions  ETV
7	11244 8180 232 190960 1.11 35.31 343 -1.5 1.5 -8.6779559958661 546.10883058508
6	19424 10767 232 190960 1.11 35.31 343 -1.4722746795918 1.4513407705138 -12.2278693613 366.70147146699
5	30191 6915 232 190960 1.11 35.31 343 36.55 36.55 12536.65 458214.5575
4	37106 10313 232 190960 1.11 35.31 343 126.60853309671 1270.416033254 240044.17327614 205607980.46494
3	47419 10308 232 190960 1.11 35.31 343 32.043531245463 35.298048086563 11470.976610665 383880.98101575
1	57727 5543 232 190960 1.11 35.31 343 0 0 0 0
0	63270 5886 232 190960 1.11 35.31 343 -1 -1 -343 343
2	69156 5543 232 190960 1.11 35.31 343 0 0 0 0
10	74699 484 5234 189278 2 35 34 0 0 0 0
9	75183 655 5234 189278 2 35 34 0.023625 0.02625 0.889875 0.023297203125
8	75838 450 5234 189278 2 35 34 0 0 0 0
51	76288 11021 234 190962 1.11 35.31 343 -1.5169291844425 1.5151528882952 37.793923163345 512.21265961428
50	87309 11061 234 190962 1.11 35.31 343 -1.4744692100919 1.4486483616651 35.752885869371 355.50763726773
49	98370 7258 234 190962 1.11 35.31 343 36.55 36.55 12536.65 458214.5575
48	105628 10656 234 190962 1.11 35.31 343 104.60853309631 1255.8237104616 232570.45236276 195390696.0563
47	116284 10648 234 190962 1.11 35.31 343 32.045362637163 36.891931022521 11546.733548902 389121.67578204
45	126932 11679 234 190962 1.11 35.31 343 -0.48844389990523 0.016164850214565 -6.3336561698132 2.0368313610263
44	138611 10643 234 190962 1.11 35.31 343 6.4243703861302 7.0430603562704 2395.7660969071 16735.598411766
46	149254 5886 234 190962 1.11 35.31 343 2 2 686 1372
58	155140 13638 1176 190791 1.281932430988 35.281929354386 341 0.099998749351 0.100011809161 34.099995730622 3.4099991508876
57	168778 13662 970 191142 1.241823137452 35.341818813571 342 0.099998745775 0.100011809247 34.199994483343 3.4199989014331
56	182440 9237 1176 190791 1.281932430988 35.281929354386 341 2 2 682 1364
55	191677 9249 970 191142 1.241823137452 35.341818813571 342 2 2 684 1368
54	200926 484 5236 189280 2 35 34 0 0 0 0
53	201410 689 5236 189280 2 35 34 0.023625 0.02625 0.889875 0.023297203125
52	202099 484 5236 189280 2 35 34 2 2 68 136
73	202583 11022 235 190963 1.11 35.31 343 -1.4985212016418 1.4980940950825 41.194871153621 505.22454868618
72	213605 11064 235 190963 1.11 35.31 343 -1.4637937878575 1.4376572527553 38.552706407039 354.86965826413
71	224669 7258 235 190963 1.11 35.31 343 36.55 36.55 12536.65 458214.5575
70	231927 10639 235 190963 1.11 35.31 343 93.608533096313 1245.1127904851 228799.86651502 190322498.49464
69	242566 10641 235 190963 1.11 35.31 343 32.054845642621 37.164223475305 11549.720994862 389337.33922848
67	253207 11795 235 190963 1.11 35.31 343 -0.2759333418429 0.013757114313741 -3.3449748181649 0.59162960329393
66	265002 10628 235 190963 1.11 35.31 343 6.7163658255461 7.0387419957037 2398.6455966648 16774.497102494
68	275630 5886 235 190963 1.11 35.31 343 3 3 1029 3087
80	281516 13621 1040 190655 1.262750174144 35.262760103569 341 0.099998749896 0.100011809181 34.100008736649 3.4100017522299
79	295137 13668 976 191148 1.241823174144 35.341818849271 342 0.099998745684 0.100011809252 34.199994482351 3.4199989012347
78	308805 9226 1040 190655 1.262750174144 35.262760103569 341 3 3 1023 3069
77	318031 9256 976 191148 1.241823174144 35.341818849271 342 3 3 1026 3078
76	327287 484 5237 189281 2 35 34 0 0 0 0
75	327771 689 5237 189281 2 35 34 0.023625 0.02625 0.889875 0.023297203125
74	328460 484 5237 189281 2 35 34 3 3 102 306
95	328944 11008 236 190964 1.11 35.31 343 -1.4920639053968 1.49229801827 42.943380547703 500.45263233051
94	339952 11068 236 190964 1.11 35.31 343 -1.4606979386613 1.4336101289139 40.051732335488 356.0394391902
93	351020 7258 236 190964 1.11 35.31 343 36.55 36.55 12536.65 458214.5575
92	358278 10644 236 190964 1.11 35.31 343 82.608533096313 1234.1986784218 225026.62297203 185331069.26493
91	368922 10644 236 190964 1.11 35.31 343 32.059309536331 37.309613662088 11550.631776146 389405.60763515
89	379566 11642 236 190964 1.11 35.31 343 -0.15053183753573 0.02532771881085 -1.2963083483671 0.24393543282792
88	391208 10651 236 190964 1.11 35.31 343 6.9170198671152 7.0545017390068 2401.2617586159 16810.886305918
90	401859 5886 236 190964 1.11 35.31 343 4 4 1372 5488
102	407745 13985 904 191076 1.240525990684 35.340534717872 342 0.09999874902 0.100011809266 34.200007534412 3.4200015117843
101	421730 14011 982 191154 1.241823210836 35.341818885661 342 0.099998745635 0.100011809255 34.199994482049 3.4199989011743
100	435741 9583 904 191076 1.240525990684 35.340534717872 342 4 4 1368 5472
99	445324 9248 982 191154 1.241823210836 35.341818885661 342 4 4 1368 5472
98	454572 484 5238 189282 2 35 34 0 0 0 0
97	455056 689 5238 189282 2 35 34 0.023625 0.02625 0.889875 0.023297203125
96	455745 484 5238 189282 2 35 34 4 4 136 544
117	456229 11358 237 190965 1.11 35.31 343 -1.4980277550227 1.498882784615 44.625251957825 509.40604487141
116	467587 11405 237 190965 1.11 35.31 343 -1.4539402577149 1.4285447633497 40.886464649044 355.30492135391
115	478992 7601 237 190965 1.11 35.31 343 36.55 36.55 12536.65 458214.5575
114	486593 10991 237 190965 1.11 35.31 343 71.608533096313 1223.3237110255 221255.19198573 180426307.11831
113	497584 10987 237 190965 1.11 35.31 343 32.062355477017 37.391732536686 11551.910881233 389496.38421989
111	508571 11973 237 190965 1.11 35.31 343 -0.088242092547858 0.035220630232885 -1.679622409849 0.25453041875712
110	520544 10977 237 190965 1.11 35.31 343 6.8766097737102 7.0290412158893 2399.4565684 16785.564945595
112	531521 6229 237 190965 1.11 35.31 343 5 5 1715 8575
124	537750 13966 1242 190851 1.287402541064 35.287399462844 341 0.099998749191 0.100011809263 34.100008729004 3.4100017507013
123	551716 13997 988 191160 1.241823247528 35.341818921928 342 0.099998745608 0.100011809257 34.199994481624 3.4199989010893
122	565713 9572 1242 190851 1.287402541064 35.287399462844 341 5 5 1705 8525
121	575285 9585 988 191160 1.241823247528 35.341818921928 342 5 5 1710 8550
120	584870 518 5239 189283 2 35 34 0 0 0 0
119	585388 723 5239 189283 2 35 34 0.023625 0.02625 0.889875 0.023297203125
118	586111 518 5239 189283 2 35 34 5 5 170 850
139	586629 11367 238 190966 1.11 35.31 343 -1.4889617641345 1.4892821233597 44.925028947796 500.47107466626
138	597996 11399 238 190966 1.11 35.31 343 -1.4484613426063 1.4234684573907 41.31010362627 353.0332887652
137	609395 7601 238 190966 1.11 35.31 343 36.55 36.55 12536.65 458214.5575
136	616996 10986 238 190966 1.11 35.31 343 60.608533096313 1212.3657505334 217482.46209715 175601706.00887
135	627982 10999 238 190966 1.11 35.31 343 32.068608242362 37.431434705639 11552.345622099 389525.88790638
133	638981 11985 238 190966 1.11 35.31 343 -0.046344106316852 0.019374233262852 -0.84360551285796 0.07069728690436
132	650966 10966 238 190966 1.11 35.31 343 6.958754535513 7.0150694776663 2400.7385833963 16803.362762973
134	661932 6229 238 190966 1.11 35.31 343 6 6 2058 12348
146	668161 13960 1106 190721 1.26671228422 35.266709212845 341 0.099998749811 0.100011809259 34.099995735849 3.4099991519327
145	682121 13998 994 191166 1.24182328422 35.341818958476 342 0.099998745595 0.10001180926 34.19999448148 3.4199989010605
144	696119 9566 1106 190721 1.26671228422 35.266709212845 341 6 6 2046 12276
143	705685 9592 994 191166 1.24182328422 35.341818958476 342 6 6 2052 12312
142	715277 518 5240 189284 2 35 34 0 0 0 0
141	715795 723 5240 189284 2 35 34 0.023625 0.02625 0.889875 0.023297203125
140	716518 518 5240 189284 2 35 34 6 6 204 1224
161	717036 11366 239 190967 1.11 35.31 343 -1.4963534196639 1.496618898628 45.661416705175 510.76839909479
160	728402 11389 239 190967 1.11 35.31 343 -1.4517793221252 1.4279261998439 41.647378806354 356.59803540866
159	739791 7601 239 190967 1.11 35.31 343 36.55 36.55 12536.65 458214.5575
158	747392 11005 239 190967 1.11 35.31 343 49.608533096313 1201.4449505054 213710.36291884 170861000.35846
157	758397 10994 239 190967 1.11 35.31 343 32.06185441604 37.46565596944 11553.149530057 389585.44320333
155	769391 11986 239 190967 1.11 35.31 343 -0.041195243115624 0.03453637043669 -1.2170089940431 0.17224048712501
154	781377 10979 239 190967 1.11 35.31 343 6.9214844532737 7.0229360338025 2400.1152564666 16794.711970796
156	792356 6229 239 190967 1.11 35.31 343 7 7 2401 16807
168	798585 13979 1308 190917 1.289466614448 35.289463535831 341 0.099998749167 0.100011809088 34.099995728607 3.4099991504847
167	812564 13997 1000 191172 1.241823320912 35.3418189949 342 0.099998745583 0.100011809257 34.199994481212 3.4199989010069
166	826561 9571 1308 190917 1.289466614448 35.289463535831 341 7 7 2387 16709
165	836132 9580 1000 191172 1.241823320912 35.3418189949 342 7 7 2394 16758
164	845712 518 5241 189285 2 35 34 0 0 0 0
163	846230 723 5241 189285 2 35 34 0.023625 0.02625 0.889875 0.023297203125
162	846953 518 5241 189285 2 35 34 7 7 238 1666
22	847471 10671 233 191176 1.11 35.36 344 0 7.0934698845562 2335.4699552349 16167.533089006
23	858142 11587 233 191176 1.11 35.36 344 -4.3378570862715 0.0781207709691 -73.906130609326 249.87947813718
24	869729 5904 233 191176 1.11 35.36 344 1 1 344 344
25	875633 10678 233 191176 1.11 35.36 344 32.042841360829 36.411455326554 11577.119217775 390011.02016454
26	886311 10678 233 191176 1.11 35.36 344 115.60853309631 1268.0588496652 237606.15679361 202142802.28576
27	896989 7280 233 191176 1.11 35.36 344 36.55 36.55 12573.2 459550.46
28	904269 11100 233 191176 1.11 35.36 344 -1.4807765620844 1.4557932508446 30.910278589288 351.06835401727
29	915369 11073 233 191176 1.11 35.36 344 -1.5034793950415 1.5024511412863 31.326099892177 499.81711428682
30	926442 484 5235 189279 2 35 34 1 1 34 34
31	926926 689 5235 189279 2 35 34 0.023625 0.02625 0.889875 0.023297203125
32	927615 484 5235 189279 2 35 34 0 0 0 0
33	928099 9248 964 191136 1.24182310076 35.341818778881 342 1 1 342 342
34	937347 9248 964 191136 1.24182310076 35.341818778881 342 1 1 342 342
35	946595 13653 964 191136 1.24182310076 35.341818778881 342 0.099998745937 0.100011809245 34.199994485345 3.4199989018335
36	960248 13653 964 191136 1.24182310076 35.341818778881 342 0.099998745937 0.100011809245 34.199994485345 3.4199989018335
