file 1685269 1501595901                                         
version 2
run SinusoidalJammingDetail-29-20170801-15:57:49-101243
attr CACCSpacing 5
attr attackAcc -30
attr attackPos 7
attr attackSpeed 150
attr attackStart 32.5
attr attacker 1
attr beaconInterval 0.1
attr configname SinusoidalJammingDetail
attr controller 1
attr datetime 20170801-15:57:49
attr experiment SinusoidalJammingDetail
attr fakeAcc "(1 == 4)"
attr fakePos "(1 == 2)"
attr fakeSpeed "(1 == 3)"
attr inifile omnetpp_29.ini
attr iterationvars "$leaderSpeed=50, $controller=1, $CACCSpacing=5, $sController=\"CACC\", $attacker=1, $attackStart=32.5, $attackSpeed=150, $attackPos=7, $attackAcc=-30, $0=5, $1=0, $nCars=8, $platoonSize=8, $nLanes=1, $beaconInterval=0.1, $priority=2, $packetSize=200, $ploegH=0.5, $leaderHeadway=1.2, $fakeSpeed=(1 == 3), $fakeAcc=(1 == 4), $fakePos=(1 == 2)"
attr iterationvarsf leaderSpeed=50,controller=1,CACCSpacing=5,sController=CACC,attacker=1,attackStart=32.5,attackSpeed=150,attackPos=7,attackAcc=-30,5,0,nCars=8,platoonSize=8,nLanes=1,beaconInterval=0.1,priority=2,packetSize=200,ploegH=0.5,leaderHeadway=1.2,fakeSpeed=(1_==_3),fakeAcc=(1_==_4),fakePos=(1_==_2)-
attr leaderHeadway 1.2
attr leaderSpeed 50
attr measurement "$leaderSpeed=50, $controller=1, $CACCSpacing=5, $sController=\"CACC\", $attacker=1, $attackStart=32.5, $attackSpeed=150, $attackPos=7, $attackAcc=-30, $0=5, $1=0, $nCars=8, $platoonSize=8, $nLanes=1, $beaconInterval=0.1, $priority=2, $packetSize=200, $ploegH=0.5, $leaderHeadway=1.2, $fakeSpeed=(1 == 3), $fakeAcc=(1 == 4), $fakePos=(1 == 2)"
attr nCars 8
attr nLanes 1
attr network scenario
attr packetSize 200
attr platoonSize 8
attr ploegH 0.5
attr priority 2
attr processid 101243
attr repetition 4
attr replication #4
attr resultdir results
attr runnumber 29
attr sController "\"CACC\""
attr seedset 4
param **.coreDebug false
param **.debug false
param **.headway 0.1s
param **.numberOfCars 8
param **.numberOfCarsPerPlatoon 8
param **.numberOfLanes 1
param **.numericController 1
param **.traffic.nCars 8
param **.traffic.nLanes 1
param **.traffic.platoonInsertDistance 5m
param **.traffic.platoonInsertHeadway 0s
param **.traffic.platoonInsertSpeed 50kmph
param **.traffic.platoonInsertTime "1 s"
param **.traffic.platoonLeaderHeadway 1.2s
param **.traffic.platoonSize 8
param **.traffic.platooningVType "\"vtypeauto\""
param **.traffic_type "\"PlatoonsTrafficManager\""
param *.**.nic.mac1609_4.bitrate 6Mbps
param *.**.nic.mac1609_4.txPower 100mW
param *.**.nic.mac1609_4.useServiceChannel false
param *.**.nic.phy80211p.analogueModels "xmldoc(\"config.xml\")"
param *.**.nic.phy80211p.decider "xmldoc(\"config.xml\")"
param *.**.nic.phy80211p.maxTXPower 100mW
param *.**.nic.phy80211p.sensitivity -94dBm
param *.**.nic.phy80211p.thermalNoise -95dBm
param *.**.nic.phy80211p.usePropagationDelay true
param *.**.nic.phy80211p.useThermalNoise true
param *.annotations.draw false
param *.connectionManager.alpha 2.0
param *.connectionManager.carrierFrequency "5.890e9 Hz"
param *.connectionManager.pMax 100mW
param *.connectionManager.sat -94dBm
param *.connectionManager.sendDirect true
param *.manager.autoShutdown true
param *.manager.commandLine "\"sumo --remote-port $port --seed $seed --configuration-file $configFile\""
param *.manager.configFile "\"./sumocfg/freeway.sumo.cfg\""
param *.manager.host "\"localhost\""
param *.manager.margin 25
param *.manager.moduleDisplayString "\"\""
param *.manager.moduleName "\"node\""
param *.manager.moduleType "\"Car\""
param *.manager.updateInterval 0.01s
param *.node[*].appl.attackStart 32.5s
param *.node[*].appl.attackerType 1
param *.node[*].appl.simulationDuration "60 s"
param *.node[*].appl_type "\"SimplePlatooningApp\""
param *.node[*].helper.nCars 8
param *.node[*].helper.nLanes 1
param *.node[*].helper.platoonSize 8
param *.node[*].helper_type "\"PositionHelper\""
param *.node[*].mobility.x 0
param *.node[*].mobility.y 0
param *.node[*].mobility.z 1.895
param *.node[*].prot.attackStart 32.5s
param *.node[*].prot.attackerType 1
param *.node[*].prot.attackingNode 3
param *.node[*].prot.beaconingInterval 0.1s
param *.node[*].prot.fakeAcc "(1 == 4)"
param *.node[*].prot.fakePos "(1 == 2)"
param *.node[*].prot.fakeSpeed "(1 == 3)"
param *.node[*].prot.maliciousAcc "-30 mpss"
param *.node[*].prot.maliciousSpeed 150kmph
param *.node[*].prot.packetSize 200
param *.node[*].prot.priority 2
param *.node[*].prot.shiftX "7 m"
param *.node[*].prot.useControllerAcceleration true
param *.node[*].protocol_type "\"SimplePlatooningBeaconing\""
param *.node[*].scenario.accHeadway 0.1s
param *.node[*].scenario.caccC1 0.5
param *.node[*].scenario.caccOmegaN "0.2 Hz"
param *.node[*].scenario.caccSpacing 5m
param *.node[*].scenario.caccXi 1
param *.node[*].scenario.controller "\"CACC\""
param *.node[*].scenario.engineTau "0.5 s"
param *.node[*].scenario.leaderHeadway 1.2s
param *.node[*].scenario.leaderOscillationFrequency "0.2 Hz"
param *.node[*].scenario.leaderSpeed 50kmph
param *.node[*].scenario.oscillationAmplitude "10 kmph"
param *.node[*].scenario.ploegH 0.5s
param *.node[*].scenario.ploegKd 0.7
param *.node[*].scenario.ploegKp 0.2
param *.node[*].scenario.startOscillating "5 s"
param *.node[*].scenario.useRealisticEngine false
param *.node[*].scenario_type "\"SinusoidalScenario\""
param *.node[*].unicast.packetLossRate 0
param *.obstacles.debug false
param *.playgroundSizeX 65000m
param *.playgroundSizeY 25000m
param *.playgroundSizeZ 50m
param *.world.use2D false
param *.world.useTorus false

vector 0  scenario.node[0].appl  distance  ETV
vector 1  scenario.node[0].appl  relativeSpeed  ETV
vector 2  scenario.node[0].appl  nodeId  ETV
vector 6  scenario.node[0].appl  acceleration  ETV
vector 7  scenario.node[0].appl  controllerAcceleration  ETV
vector 3  scenario.node[0].appl  speed  ETV
vector 4  scenario.node[0].appl  posx  ETV
vector 5  scenario.node[0].appl  posy  ETV
vector 22  scenario.node[1].appl  distance  ETV
vector 23  scenario.node[1].appl  relativeSpeed  ETV
vector 24  scenario.node[1].appl  nodeId  ETV
vector 28  scenario.node[1].appl  acceleration  ETV
vector 29  scenario.node[1].appl  controllerAcceleration  ETV
vector 25  scenario.node[1].appl  speed  ETV
vector 26  scenario.node[1].appl  posx  ETV
vector 27  scenario.node[1].appl  posy  ETV
vector 44  scenario.node[2].appl  distance  ETV
vector 45  scenario.node[2].appl  relativeSpeed  ETV
vector 46  scenario.node[2].appl  nodeId  ETV
vector 50  scenario.node[2].appl  acceleration  ETV
vector 51  scenario.node[2].appl  controllerAcceleration  ETV
vector 47  scenario.node[2].appl  speed  ETV
vector 48  scenario.node[2].appl  posx  ETV
vector 49  scenario.node[2].appl  posy  ETV
vector 66  scenario.node[3].appl  distance  ETV
vector 67  scenario.node[3].appl  relativeSpeed  ETV
vector 68  scenario.node[3].appl  nodeId  ETV
vector 72  scenario.node[3].appl  acceleration  ETV
vector 73  scenario.node[3].appl  controllerAcceleration  ETV
vector 69  scenario.node[3].appl  speed  ETV
vector 70  scenario.node[3].appl  posx  ETV
vector 71  scenario.node[3].appl  posy  ETV
vector 88  scenario.node[4].appl  distance  ETV
vector 89  scenario.node[4].appl  relativeSpeed  ETV
vector 90  scenario.node[4].appl  nodeId  ETV
vector 94  scenario.node[4].appl  acceleration  ETV
vector 95  scenario.node[4].appl  controllerAcceleration  ETV
vector 91  scenario.node[4].appl  speed  ETV
vector 92  scenario.node[4].appl  posx  ETV
vector 93  scenario.node[4].appl  posy  ETV
vector 110  scenario.node[5].appl  distance  ETV
vector 111  scenario.node[5].appl  relativeSpeed  ETV
vector 112  scenario.node[5].appl  nodeId  ETV
vector 116  scenario.node[5].appl  acceleration  ETV
vector 117  scenario.node[5].appl  controllerAcceleration  ETV
vector 113  scenario.node[5].appl  speed  ETV
vector 114  scenario.node[5].appl  posx  ETV
vector 115  scenario.node[5].appl  posy  ETV
vector 132  scenario.node[6].appl  distance  ETV
vector 133  scenario.node[6].appl  relativeSpeed  ETV
vector 134  scenario.node[6].appl  nodeId  ETV
vector 138  scenario.node[6].appl  acceleration  ETV
vector 139  scenario.node[6].appl  controllerAcceleration  ETV
vector 135  scenario.node[6].appl  speed  ETV
vector 136  scenario.node[6].appl  posx  ETV
vector 137  scenario.node[6].appl  posy  ETV
vector 154  scenario.node[7].appl  distance  ETV
vector 155  scenario.node[7].appl  relativeSpeed  ETV
vector 156  scenario.node[7].appl  nodeId  ETV
vector 160  scenario.node[7].appl  acceleration  ETV
vector 161  scenario.node[7].appl  controllerAcceleration  ETV
vector 157  scenario.node[7].appl  speed  ETV
vector 158  scenario.node[7].appl  posx  ETV
vector 159  scenario.node[7].appl  posy  ETV
vector 102  scenario.node[4].prot  frontDelay  ETV
vector 100  scenario.node[4].prot  frontDelayId  ETV
vector 35  scenario.node[1].prot  leaderDelay  ETV
vector 33  scenario.node[1].prot  leaderDelayId  ETV
vector 36  scenario.node[1].prot  frontDelay  ETV
vector 34  scenario.node[1].prot  frontDelayId  ETV
vector 57  scenario.node[2].prot  leaderDelay  ETV
vector 55  scenario.node[2].prot  leaderDelayId  ETV
vector 79  scenario.node[3].prot  leaderDelay  ETV
vector 77  scenario.node[3].prot  leaderDelayId  ETV
vector 101  scenario.node[4].prot  leaderDelay  ETV
vector 99  scenario.node[4].prot  leaderDelayId  ETV
vector 123  scenario.node[5].prot  leaderDelay  ETV
vector 121  scenario.node[5].prot  leaderDelayId  ETV
vector 145  scenario.node[6].prot  leaderDelay  ETV
vector 143  scenario.node[6].prot  leaderDelayId  ETV
vector 167  scenario.node[7].prot  leaderDelay  ETV
vector 165  scenario.node[7].prot  leaderDelayId  ETV
vector 80  scenario.node[3].prot  frontDelay  ETV
vector 78  scenario.node[3].prot  frontDelayId  ETV
vector 146  scenario.node[6].prot  frontDelay  ETV
vector 144  scenario.node[6].prot  frontDelayId  ETV
vector 58  scenario.node[2].prot  frontDelay  ETV
vector 56  scenario.node[2].prot  frontDelayId  ETV
vector 124  scenario.node[5].prot  frontDelay  ETV
vector 122  scenario.node[5].prot  frontDelayId  ETV
vector 168  scenario.node[7].prot  frontDelay  ETV
vector 166  scenario.node[7].prot  frontDelayId  ETV
vector 8  scenario.node[0].prot  nodeId  ETV
vector 9  scenario.node[0].prot  busyTime  ETV
vector 10  scenario.node[0].prot  collisions  ETV
vector 30  scenario.node[1].prot  nodeId  ETV
vector 31  scenario.node[1].prot  busyTime  ETV
vector 32  scenario.node[1].prot  collisions  ETV
vector 52  scenario.node[2].prot  nodeId  ETV
vector 53  scenario.node[2].prot  busyTime  ETV
vector 54  scenario.node[2].prot  collisions  ETV
vector 74  scenario.node[3].prot  nodeId  ETV
vector 75  scenario.node[3].prot  busyTime  ETV
vector 76  scenario.node[3].prot  collisions  ETV
vector 96  scenario.node[4].prot  nodeId  ETV
vector 97  scenario.node[4].prot  busyTime  ETV
vector 98  scenario.node[4].prot  collisions  ETV
vector 118  scenario.node[5].prot  nodeId  ETV
vector 119  scenario.node[5].prot  busyTime  ETV
vector 120  scenario.node[5].prot  collisions  ETV
vector 140  scenario.node[6].prot  nodeId  ETV
vector 141  scenario.node[6].prot  busyTime  ETV
vector 142  scenario.node[6].prot  collisions  ETV
vector 162  scenario.node[7].prot  nodeId  ETV
vector 163  scenario.node[7].prot  busyTime  ETV
vector 164  scenario.node[7].prot  collisions  ETV
7	11237 13860 232 328174 1.11 59.91 589 -1.5 1.5 -14.445969899918 993.24092361736
6	25097 18587 232 328174 1.11 59.91 589 -1.472274679513 1.4513434175798 -12.507264912644 675.29835211523
5	43684 12081 232 328174 1.11 59.91 589 36.55 36.55 21527.95 786846.5725
4	55765 17914 232 328174 1.11 59.91 589 110.66408882128 931.64688731922 307780.35145325 193878112.50268
3	73679 17901 232 328174 1.11 59.91 589 12.599076970844 15.853603639796 8223.2832500118 115251.79065057
1	91580 9725 232 328174 1.11 59.91 589 0 0 0 0
0	101305 10314 232 328174 1.11 59.91 589 -1 -1 -589 589
2	111619 9725 232 328174 1.11 59.91 589 0 0 0 0
10	121344 859 5234 328728 2 60 59 0 0 0 0
9	122203 1155 5234 328728 2 60 59 0.023625 0.02625 1.546125 0.040523765625
8	123358 800 5234 328728 2 60 59 0 0 0 0
29	124158 19470 233 328175 1.11 59.91 589 -1.5034793945977 1.50245114211 -0.22900265589478 505.96958915942
28	143628 19506 233 328175 1.11 59.91 589 -1.4807765622439 1.4557932512774 -0.41288515246602 348.17035925248
27	163134 12670 233 328175 1.11 59.91 589 36.55 36.55 21527.95 786846.5725
26	175804 18508 233 328175 1.11 59.91 589 101.66408882141 912.88385599247 301069.31426329 186106380.42974
25	194312 18495 233 328175 1.11 59.91 589 12.598396914678 15.860240752882 8126.0719175885 112430.31804323
23	212807 19694 233 328175 1.11 59.91 589 -1.2644115024158 2.1626204659188 97.336405072452 292.09564126912
22	232501 18475 233 328175 1.11 59.91 589 2.797924404445 15.35985076485 4353.0929633121 40263.858155766
24	250976 10314 233 328175 1.11 59.91 589 1 1 589 589
36	261290 23700 964 328350 1.241822900623 59.941822608965 588 0.099998648587 0.100012137253 58.799998368799 5.87999968231
35	284990 23700 964 328350 1.241822900623 59.941822608965 588 0.099998648587 0.100012137253 58.799998368799 5.87999968231
34	308690 16119 964 328350 1.241822900623 59.941822608965 588 1 1 588 588
33	324809 16119 964 328350 1.241822900623 59.941822608965 588 1 1 588 588
32	340928 859 5235 328729 2 60 59 0 0 0 0
31	341787 1214 5235 328729 2 60 59 0.023625 0.02625 1.546125 0.040523765625
30	343001 859 5235 328729 2 60 59 1 1 59 59
51	343860 19413 234 328176 1.11 59.91 589 -1.5169291868394 1.5151528891412 -1.3259823161035 513.85829699645
50	363273 19473 234 328176 1.11 59.91 589 -1.4744692136986 1.4486483625669 -1.5223474330071 348.46273702971
49	382746 12670 234 328176 1.11 59.91 589 36.55 36.55 21527.95 786846.5725
48	395416 18493 234 328176 1.11 59.91 589 92.664088821411 896.55896352403 294737.8247788 179109370.63196
47	413909 18502 234 328176 1.11 59.91 589 12.560396763013 15.85358889867 8052.7841271242 110497.15866682
45	432411 19836 234 328176 1.11 59.91 589 -0.018683343092555 0.47369207363131 73.291919315743 25.768669046833
44	452247 18484 234 328176 1.11 59.91 589 4.9677844923505 12.322669704797 3974.0237286754 30760.893126443
46	470731 10314 234 328176 1.11 59.91 589 2 2 1178 2356
58	481045 23688 1176 328556 1.28193217081 59.981932079418 588 0.099998648721 0.100012133779 58.799998569065 5.8799997223602
57	504733 23706 970 328356 1.241822930644 59.941822663431 588 0.099998648618 0.10001213729 58.799998393244 5.8799996871991
56	528439 16117 1176 328556 1.28193217081 59.981932079418 588 2 2 1176 2352
55	544556 16116 970 328356 1.241822930644 59.941822663431 588 2 2 1176 2352
54	560672 859 5236 328730 2 60 59 0 0 0 0
53	561531 1214 5236 328730 2 60 59 0.023625 0.02625 1.546125 0.040523765625
52	562745 859 5236 328730 2 60 59 2 2 118 236
73	563604 19406 235 328177 1.11 59.91 589 -1.498521207469 1.4980940761148 -2.7175711699609 503.56508221156
72	583010 19463 235 328177 1.11 59.91 589 -1.4637937952827 1.4376572541694 -2.9570465082234 345.17022847141
71	602473 12670 235 328177 1.11 59.91 589 36.55 36.55 21527.95 786846.5725
70	615143 18480 235 328177 1.11 59.91 589 83.664088821411 880.66977401304 288566.82567975 172491840.58949
69	633623 18499 235 328177 1.11 59.91 589 12.221415231365 15.843334440892 7983.8419584589 108712.36416602
67	652122 19902 235 328177 1.11 59.91 589 -0.015548587667887 0.42094860114577 68.95739213966 21.848033585721
66	672024 18483 235 328177 1.11 59.91 589 4.9738525530163 11.886312577199 3813.6202556854 27782.650330609
68	690507 10314 235 328177 1.11 59.91 589 3 3 1767 5301
80	700821 23699 1040 328420 1.262749960665 59.962749716456 588 0.099998648605 0.100012127787 58.799998416248 5.879999691793
79	724520 23696 976 328362 1.241822960664 59.941822716446 588 0.099998648635 0.100012137338 58.799998416239 5.8799996917981
78	748216 16119 1040 328420 1.262749960665 59.962749716456 588 3 3 1764 5292
77	764335 16116 976 328362 1.241822960664 59.941822716446 588 3 3 1764 5292
76	780451 859 5237 328731 2 60 59 0 0 0 0
75	781310 1214 5237 328731 2 60 59 0.023625 0.02625 1.546125 0.040523765625
74	782524 859 5237 328731 2 60 59 3 3 177 531
95	783383 19364 236 328178 1.11 59.91 589 -1.4920639073632 1.4922979971075 -4.4469821752674 497.01026886219
94	802747 19450 236 328178 1.11 59.91 589 -1.460697948616 1.43365119393 -4.7568776084084 345.05891830103
93	822197 12670 236 328178 1.11 59.91 589 36.55 36.55 21527.95 786846.5725
92	834867 18500 236 328178 1.11 59.91 589 74.664088821411 865.31215733375 282544.96278498 166228458.57914
91	853367 18490 236 328178 1.11 59.91 589 11.945965159411 15.84072568526 7920.2027045704 107097.11494911
89	871857 19754 236 328178 1.11 59.91 589 -0.026253898448637 0.36971653659394 63.668824353618 18.895077127865
88	891611 18482 236 328178 1.11 59.91 589 4.9580811740684 11.354006444248 3664.5901096871 25143.430377628
90	910093 10314 236 328178 1.11 59.91 589 4 4 2356 9424
102	920407 24282 904 328284 1.240525810561 59.940538427798 588 0.09999864879 0.10001214081 58.800011277694 5.8800022642276
101	944689 24305 982 328368 1.241822990685 59.941822767691 588 0.09999864864 0.100012137401 58.799998437463 5.8799996960428
100	968994 16706 904 328284 1.240525810561 59.940538427798 588 4 4 2352 9408
99	985700 16122 982 328368 1.241822990685 59.941822767691 588 4 4 2352 9408
98	1001822 859 5238 328732 2 60 59 0 0 0 0
97	1002681 1214 5238 328732 2 60 59 0.023625 0.02625 1.546125 0.040523765625
96	1003895 859 5238 328732 2 60 59 4 4 236 944
117	1004754 19973 237 328179 1.11 59.91 589 -1.4980277566388 1.4988827652989 -6.5554933494792 504.94772317112
116	1024727 20014 237 328179 1.11 59.91 589 -1.4539402688536 1.4286551538399 -6.8869082762134 343.84778299799
115	1044741 13259 237 328179 1.11 59.91 589 36.55 36.55 21527.95 786846.5725
114	1058000 19084 237 328179 1.11 59.91 589 65.664088821411 850.56246999755 276649.32929442 160278791.85914
113	1077084 19077 237 328179 1.11 59.91 589 11.729297863229 15.832912353675 7862.63118958 105658.80450941
111	1096161 20338 237 328179 1.11 59.91 589 -0.034429564717909 0.33094933363897 57.619083766421 15.827617197429
110	1116499 19076 237 328179 1.11 59.91 589 4.9774898037654 10.745414349726 3538.4820602615 22976.260831747
112	1135575 10903 237 328179 1.11 59.91 589 5 5 2945 14725
124	1146478 24278 1242 328622 1.287402260872 59.98740223297 588 0.099998648754 0.100012140288 58.800011632555 5.8800023351987
123	1170756 24307 988 328374 1.241823020706 59.941822816912 588 0.099998648647 0.100012137475 58.799998456663 5.8799996998828
122	1195063 16699 1242 328622 1.287402260872 59.98740223297 588 5 5 2940 14700
121	1211762 16714 988 328374 1.241823020706 59.941822816912 588 5 5 2940 14700
120	1228476 918 5239 328733 2 60 59 0 0 0 0
119	1229394 1273 5239 328733 2 60 59 0.023625 0.02625 1.546125 0.040523765625
118	1230667 918 5239 328733 2 60 59 5 5 295 1475
139	1231585 19957 238 328180 1.11 59.91 589 -1.4889617684878 1.4892820995499 -8.8616529491749 495.55655804457
138	1251542 20019 238 328180 1.11 59.91 589 -1.4484613546822 1.423630492236 -9.2689957635363 341.32255777676
137	1271561 13259 238 328180 1.11 59.91 589 36.55 36.55 21527.95 786846.5725
136	1284820 19076 238 328180 1.11 59.91 589 56.664088821411 836.44638400271 270866.92767585 154616051.48179
135	1303896 19071 238 328180 1.11 59.91 589 11.550745455554 15.824463002073 7811.3869012951 104399.28750183
133	1322967 20387 238 328180 1.11 59.91 589 -0.018955475404908 0.3060499156544 51.313157367723 13.157932008534
132	1343354 19074 238 328180 1.11 59.91 589 4.9898917587916 10.111313692704 3425.3767327996 21152.055011013
134	1362428 10903 238 328180 1.11 59.91 589 6 6 3534 21204
146	1373331 24307 1106 328486 1.266712050727 59.966711864074 588 0.099998648649 0.100012137556 58.799998473804 5.8799997033112
145	1397638 24299 994 328380 1.241823050727 59.941822864022 588 0.09999864865 0.100012137556 58.799998473752 5.8799997033007
144	1421937 16723 1106 328486 1.266712050727 59.966711864074 588 6 6 3528 21168
143	1438660 16705 994 328380 1.241823050727 59.941822864022 588 6 6 3528 21168
142	1455365 918 5240 328734 2 60 59 0 0 0 0
141	1456283 1273 5240 328734 2 60 59 0.023625 0.02625 1.546125 0.040523765625
140	1457556 918 5240 328734 2 60 59 6 6 354 2124
161	1458474 19978 239 328181 1.11 59.91 589 -1.4963534205583 1.4966188769194 -11.402345327558 505.78904686634
160	1478452 20018 239 328181 1.11 59.91 589 -1.4517793346167 1.4281293225711 -11.795411766063 344.93463485151
159	1498470 13259 239 328181 1.11 59.91 589 36.55 36.55 21527.95 786846.5725
158	1511729 19084 239 328181 1.11 59.91 589 47.664088821411 823.00074667203 265179.17445354 149207656.77633
157	1530813 19079 239 328181 1.11 59.91 589 11.407313081473 15.82884066924 7766.842020799 103325.16495009
155	1549892 20354 239 328181 1.11 59.91 589 -0.031900534117684 0.28159323994879 44.637570453662 10.539572283759
154	1570246 19059 239 328181 1.11 59.91 589 4.9775604260814 9.4405737865335 3330.8623247036 19682.58831424
156	1589305 10903 239 328181 1.11 59.91 589 7 7 4123 28861
168	1600208 24278 1308 328688 1.289466320914 59.989466325021 588 0.099998648761 0.100012134138 58.799998664564 5.8799997414595
167	1624486 24280 1000 328386 1.241823080747 59.941822908897 588 0.099998648654 0.100012137642 58.799998488607 5.8799997062716
166	1648766 16694 1308 328688 1.289466320914 59.989466325021 588 7 7 4116 28812
165	1665460 16700 1000 328386 1.241823080747 59.941822908897 588 7 7 4116 28812
164	1682160 918 5241 328735 2 60 59 0 0 0 0
163	1683078 1273 5241 328735 2 60 59 0.023625 0.02625 1.546125 0.040523765625
162	1684351 918 5241 328735 2 60 59 7 7 413 2891
