file 1689562 1501771720                                         
version 2
run SinusoidalJammingDetail-451-20170803-16:48:10-36126
attr CACCSpacing 5
attr attackAcc -30
attr attackPos 7
attr attackSpeed 150
attr attackStart 30
attr attacker 1
attr beaconInterval 0.1
attr configname SinusoidalJammingDetail
attr controller 3
attr datetime 20170803-16:48:10
attr experiment SinusoidalJammingDetail
attr fakeAcc "(1 == 4)"
attr fakePos "(1 == 2)"
attr fakeSpeed "(1 == 3)"
attr inifile omnetpp_451.ini
attr iterationvars "$leaderSpeed=80, $controller=3, $CACCSpacing=5, $sController=\"CONSENSUS\", $attacker=1, $attackStart=30, $attackSpeed=150, $attackPos=7, $attackAcc=-30, $0=5, $1=0.8, $nCars=8, $platoonSize=8, $nLanes=1, $beaconInterval=0.1, $priority=2, $packetSize=200, $ploegH=0.5, $leaderHeadway=1.2, $fakeSpeed=(1 == 3), $fakeAcc=(1 == 4), $fakePos=(1 == 2)"
attr iterationvarsf leaderSpeed=80,controller=3,CACCSpacing=5,sController=CONSENSUS,attacker=1,attackStart=30,attackSpeed=150,attackPos=7,attackAcc=-30,5,0.8,nCars=8,platoonSize=8,nLanes=1,beaconInterval=0.1,priority=2,packetSize=200,ploegH=0.5,leaderHeadway=1.2,fakeSpeed=(1_==_3),fakeAcc=(1_==_4),fakePos=(1_==_2)-
attr leaderHeadway 1.2
attr leaderSpeed 80
attr measurement "$leaderSpeed=80, $controller=3, $CACCSpacing=5, $sController=\"CONSENSUS\", $attacker=1, $attackStart=30, $attackSpeed=150, $attackPos=7, $attackAcc=-30, $0=5, $1=0.8, $nCars=8, $platoonSize=8, $nLanes=1, $beaconInterval=0.1, $priority=2, $packetSize=200, $ploegH=0.5, $leaderHeadway=1.2, $fakeSpeed=(1 == 3), $fakeAcc=(1 == 4), $fakePos=(1 == 2)"
attr nCars 8
attr nLanes 1
attr network scenario
attr packetSize 200
attr platoonSize 8
attr ploegH 0.5
attr priority 2
attr processid 36126
attr repetition 1
attr replication #1
attr resultdir results
attr runnumber 451
attr sController "\"CONSENSUS\""
attr seedset 1
param **.coreDebug false
param **.debug false
param **.headway 0.1s
param **.numberOfCars 8
param **.numberOfCarsPerPlatoon 8
param **.numberOfLanes 1
param **.numericController 3
param **.traffic.nCars 8
param **.traffic.nLanes 1
param **.traffic.platoonInsertDistance 5m
param **.traffic.platoonInsertHeadway 0.8s
param **.traffic.platoonInsertSpeed 80kmph
param **.traffic.platoonInsertTime "1 s"
param **.traffic.platoonLeaderHeadway 1.2s
param **.traffic.platoonSize 8
param **.traffic.platooningVType "\"vtypeauto\""
param **.traffic_type "\"PlatoonsTrafficManager\""
param *.**.nic.mac1609_4.bitrate 6Mbps
param *.**.nic.mac1609_4.txPower 100mW
param *.**.nic.mac1609_4.useServiceChannel false
param *.**.nic.phy80211p.analogueModels "xmldoc(\"config.xml\")"
param *.**.nic.phy80211p.decider "xmldoc(\"config.xml\")"
param *.**.nic.phy80211p.maxTXPower 100mW
param *.**.nic.phy80211p.sensitivity -94dBm
param *.**.nic.phy80211p.thermalNoise -95dBm
param *.**.nic.phy80211p.usePropagationDelay true
param *.**.nic.phy80211p.useThermalNoise true
param *.annotations.draw false
param *.connectionManager.alpha 2.0
param *.connectionManager.carrierFrequency "5.890e9 Hz"
param *.connectionManager.pMax 100mW
param *.connectionManager.sat -94dBm
param *.connectionManager.sendDirect true
param *.manager.autoShutdown true
param *.manager.commandLine "\"sumo --remote-port $port --seed $seed --configuration-file $configFile\""
param *.manager.configFile "\"./sumocfg/freeway.sumo.cfg\""
param *.manager.host "\"localhost\""
param *.manager.margin 25
param *.manager.moduleDisplayString "\"\""
param *.manager.moduleName "\"node\""
param *.manager.moduleType "\"Car\""
param *.manager.updateInterval 0.01s
param *.node[*].appl.attackStart 30s
param *.node[*].appl.attackerType 1
param *.node[*].appl.simulationDuration "60 s"
param *.node[*].appl_type "\"SimplePlatooningApp\""
param *.node[*].helper.nCars 8
param *.node[*].helper.nLanes 1
param *.node[*].helper.platoonSize 8
param *.node[*].helper_type "\"PositionHelper\""
param *.node[*].mobility.x 0
param *.node[*].mobility.y 0
param *.node[*].mobility.z 1.895
param *.node[*].prot.attackStart 30s
param *.node[*].prot.attackerType 1
param *.node[*].prot.attackingNode 3
param *.node[*].prot.beaconingInterval 0.1s
param *.node[*].prot.fakeAcc "(1 == 4)"
param *.node[*].prot.fakePos "(1 == 2)"
param *.node[*].prot.fakeSpeed "(1 == 3)"
param *.node[*].prot.maliciousAcc "-30 mpss"
param *.node[*].prot.maliciousSpeed 150kmph
param *.node[*].prot.packetSize 200
param *.node[*].prot.priority 2
param *.node[*].prot.shiftX "7 m"
param *.node[*].prot.useControllerAcceleration true
param *.node[*].protocol_type "\"SimplePlatooningBeaconing\""
param *.node[*].scenario.accHeadway 0.1s
param *.node[*].scenario.caccC1 0.5
param *.node[*].scenario.caccOmegaN "0.2 Hz"
param *.node[*].scenario.caccSpacing 5m
param *.node[*].scenario.caccXi 1
param *.node[*].scenario.controller "\"CONSENSUS\""
param *.node[*].scenario.engineTau "0.5 s"
param *.node[*].scenario.leaderHeadway 1.2s
param *.node[*].scenario.leaderOscillationFrequency "0.2 Hz"
param *.node[*].scenario.leaderSpeed 80kmph
param *.node[*].scenario.oscillationAmplitude "10 kmph"
param *.node[*].scenario.ploegH 0.5s
param *.node[*].scenario.ploegKd 0.7
param *.node[*].scenario.ploegKp 0.2
param *.node[*].scenario.startOscillating "5 s"
param *.node[*].scenario.useRealisticEngine false
param *.node[*].scenario_type "\"SinusoidalScenario\""
param *.node[*].unicast.packetLossRate 0
param *.obstacles.debug false
param *.playgroundSizeX 65000m
param *.playgroundSizeY 25000m
param *.playgroundSizeZ 50m
param *.world.use2D false
param *.world.useTorus false

vector 0  scenario.node[0].appl  distance  ETV
vector 1  scenario.node[0].appl  relativeSpeed  ETV
vector 2  scenario.node[0].appl  nodeId  ETV
vector 6  scenario.node[0].appl  acceleration  ETV
vector 7  scenario.node[0].appl  controllerAcceleration  ETV
vector 3  scenario.node[0].appl  speed  ETV
vector 4  scenario.node[0].appl  posx  ETV
vector 5  scenario.node[0].appl  posy  ETV
vector 22  scenario.node[1].appl  distance  ETV
vector 23  scenario.node[1].appl  relativeSpeed  ETV
vector 24  scenario.node[1].appl  nodeId  ETV
vector 28  scenario.node[1].appl  acceleration  ETV
vector 29  scenario.node[1].appl  controllerAcceleration  ETV
vector 25  scenario.node[1].appl  speed  ETV
vector 26  scenario.node[1].appl  posx  ETV
vector 27  scenario.node[1].appl  posy  ETV
vector 44  scenario.node[2].appl  distance  ETV
vector 45  scenario.node[2].appl  relativeSpeed  ETV
vector 46  scenario.node[2].appl  nodeId  ETV
vector 50  scenario.node[2].appl  acceleration  ETV
vector 51  scenario.node[2].appl  controllerAcceleration  ETV
vector 47  scenario.node[2].appl  speed  ETV
vector 48  scenario.node[2].appl  posx  ETV
vector 49  scenario.node[2].appl  posy  ETV
vector 66  scenario.node[3].appl  distance  ETV
vector 67  scenario.node[3].appl  relativeSpeed  ETV
vector 68  scenario.node[3].appl  nodeId  ETV
vector 72  scenario.node[3].appl  acceleration  ETV
vector 73  scenario.node[3].appl  controllerAcceleration  ETV
vector 69  scenario.node[3].appl  speed  ETV
vector 70  scenario.node[3].appl  posx  ETV
vector 71  scenario.node[3].appl  posy  ETV
vector 88  scenario.node[4].appl  distance  ETV
vector 89  scenario.node[4].appl  relativeSpeed  ETV
vector 90  scenario.node[4].appl  nodeId  ETV
vector 94  scenario.node[4].appl  acceleration  ETV
vector 95  scenario.node[4].appl  controllerAcceleration  ETV
vector 91  scenario.node[4].appl  speed  ETV
vector 92  scenario.node[4].appl  posx  ETV
vector 93  scenario.node[4].appl  posy  ETV
vector 110  scenario.node[5].appl  distance  ETV
vector 111  scenario.node[5].appl  relativeSpeed  ETV
vector 112  scenario.node[5].appl  nodeId  ETV
vector 116  scenario.node[5].appl  acceleration  ETV
vector 117  scenario.node[5].appl  controllerAcceleration  ETV
vector 113  scenario.node[5].appl  speed  ETV
vector 114  scenario.node[5].appl  posx  ETV
vector 115  scenario.node[5].appl  posy  ETV
vector 132  scenario.node[6].appl  distance  ETV
vector 133  scenario.node[6].appl  relativeSpeed  ETV
vector 134  scenario.node[6].appl  nodeId  ETV
vector 138  scenario.node[6].appl  acceleration  ETV
vector 139  scenario.node[6].appl  controllerAcceleration  ETV
vector 135  scenario.node[6].appl  speed  ETV
vector 136  scenario.node[6].appl  posx  ETV
vector 137  scenario.node[6].appl  posy  ETV
vector 154  scenario.node[7].appl  distance  ETV
vector 155  scenario.node[7].appl  relativeSpeed  ETV
vector 156  scenario.node[7].appl  nodeId  ETV
vector 160  scenario.node[7].appl  acceleration  ETV
vector 161  scenario.node[7].appl  controllerAcceleration  ETV
vector 157  scenario.node[7].appl  speed  ETV
vector 158  scenario.node[7].appl  posx  ETV
vector 159  scenario.node[7].appl  posy  ETV
vector 58  scenario.node[2].prot  frontDelay  ETV
vector 56  scenario.node[2].prot  frontDelayId  ETV
vector 102  scenario.node[4].prot  frontDelay  ETV
vector 100  scenario.node[4].prot  frontDelayId  ETV
vector 146  scenario.node[6].prot  frontDelay  ETV
vector 144  scenario.node[6].prot  frontDelayId  ETV
vector 168  scenario.node[7].prot  frontDelay  ETV
vector 166  scenario.node[7].prot  frontDelayId  ETV
vector 124  scenario.node[5].prot  frontDelay  ETV
vector 122  scenario.node[5].prot  frontDelayId  ETV
vector 35  scenario.node[1].prot  leaderDelay  ETV
vector 33  scenario.node[1].prot  leaderDelayId  ETV
vector 36  scenario.node[1].prot  frontDelay  ETV
vector 34  scenario.node[1].prot  frontDelayId  ETV
vector 57  scenario.node[2].prot  leaderDelay  ETV
vector 55  scenario.node[2].prot  leaderDelayId  ETV
vector 79  scenario.node[3].prot  leaderDelay  ETV
vector 77  scenario.node[3].prot  leaderDelayId  ETV
vector 101  scenario.node[4].prot  leaderDelay  ETV
vector 99  scenario.node[4].prot  leaderDelayId  ETV
vector 123  scenario.node[5].prot  leaderDelay  ETV
vector 121  scenario.node[5].prot  leaderDelayId  ETV
vector 145  scenario.node[6].prot  leaderDelay  ETV
vector 143  scenario.node[6].prot  leaderDelayId  ETV
vector 167  scenario.node[7].prot  leaderDelay  ETV
vector 165  scenario.node[7].prot  leaderDelayId  ETV
vector 80  scenario.node[3].prot  frontDelay  ETV
vector 78  scenario.node[3].prot  frontDelayId  ETV
vector 8  scenario.node[0].prot  nodeId  ETV
vector 9  scenario.node[0].prot  busyTime  ETV
vector 10  scenario.node[0].prot  collisions  ETV
vector 30  scenario.node[1].prot  nodeId  ETV
vector 31  scenario.node[1].prot  busyTime  ETV
vector 32  scenario.node[1].prot  collisions  ETV
vector 52  scenario.node[2].prot  nodeId  ETV
vector 53  scenario.node[2].prot  busyTime  ETV
vector 54  scenario.node[2].prot  collisions  ETV
vector 74  scenario.node[3].prot  nodeId  ETV
vector 75  scenario.node[3].prot  busyTime  ETV
vector 76  scenario.node[3].prot  collisions  ETV
vector 96  scenario.node[4].prot  nodeId  ETV
vector 97  scenario.node[4].prot  busyTime  ETV
vector 98  scenario.node[4].prot  collisions  ETV
vector 118  scenario.node[5].prot  nodeId  ETV
vector 119  scenario.node[5].prot  busyTime  ETV
vector 120  scenario.node[5].prot  collisions  ETV
vector 140  scenario.node[6].prot  nodeId  ETV
vector 141  scenario.node[6].prot  busyTime  ETV
vector 142  scenario.node[6].prot  collisions  ETV
vector 162  scenario.node[7].prot  nodeId  ETV
vector 163  scenario.node[7].prot  busyTime  ETV
vector 164  scenario.node[7].prot  collisions  ETV
7	11259 13855 232 328174 1.11 59.91 589 -1.5 1.5 -14.445957496355 993.24092342393
6	25114 18568 232 328174 1.11 59.91 589 -1.4722746795719 1.4513434175793 -12.507252200722 675.29835178084
5	43682 12081 232 328174 1.11 59.91 589 36.55 36.55 21527.95 786846.5725
4	55763 17904 232 328174 1.11 59.91 589 222.2720573428 1533.2548547072 517822.44424978 539656314.56629
3	73667 17918 232 328174 1.11 59.91 589 20.932410304178 24.18693697487 13131.616571188 293209.28872176
1	91585 9725 232 328174 1.11 59.91 589 0 0 0 0
0	101310 10314 232 328174 1.11 59.91 589 -1 -1 -589 589
2	111624 9725 232 328174 1.11 59.91 589 0 0 0 0
10	121349 858 5168 328662 2 60 59 0 0 0 0
9	122207 1154 5168 328662 2 60 59 0.023297 0.02625 1.545797 0.040508375209
8	123361 799 5168 328662 2 60 59 0 0 0 0
29	124160 20010 233 328175 1.11 59.91 589 -4.5299821252229 2.0650965390476 -11.437366188525 676.5175646404
28	144170 20027 233 328175 1.11 59.91 589 -2.542380001719 1.7150010634676 -12.589982623505 433.07742739262
27	164197 12670 233 328175 1.11 59.91 589 36.55 36.55 21527.95 786846.5725
26	176867 18509 233 328175 1.11 59.91 589 195.49428634644 1459.4563526709 491197.33658987 488991125.16923
25	195376 18505 233 328175 1.11 59.91 589 19.597462853745 23.75707865937 12661.399829363 272702.32162748
23	213881 18957 233 328175 1.11 59.91 589 -1.2109827088894 2.6247592830456 470.34181434635 1063.1506384316
22	232838 18481 233 328175 1.11 59.91 589 22.777770996243 69.797621499881 24259.703325068 1091199.1940858
24	251319 10314 233 328175 1.11 59.91 589 1 1 589 589
36	261633 23706 1238 328624 1.297803679642 59.997810037181 588 0.099987086434 0.10001291016 58.800005786687 5.8800011584932
35	285339 23706 1238 328624 1.297803679642 59.997810037181 588 0.099987086434 0.10001291016 58.800005786687 5.8800011584932
34	309045 16130 1238 328624 1.297803679642 59.997810037181 588 1 1 588 588
33	325175 16130 1238 328624 1.297803679642 59.997810037181 588 1 1 588 588
32	341305 858 5169 328663 2 60 59 0 0 0 0
31	342163 1213 5169 328663 2 60 59 0.023297 0.02625 1.545797 0.040508375209
30	343376 858 5169 328663 2 60 59 1 1 59 59
51	344234 19943 234 328176 1.11 59.91 589 -5.0999959081974 1.6624098142358 -14.436727233938 490.77712692147
50	364177 20006 234 328176 1.11 59.91 589 -2.8387214088401 1.3653081779488 -12.5978552001 285.50346634192
49	384183 12670 234 328176 1.11 59.91 589 36.55 36.55 21527.95 786846.5725
48	396853 18483 234 328176 1.11 59.91 589 168.71650009155 1423.6923652464 470507.6302113 454626345.15574
47	415336 18492 234 328176 1.11 59.91 589 19.091463960992 23.252626381791 12571.537975448 268738.01758337
45	433828 19939 234 328176 1.11 59.91 589 -0.36418173945691 1.2112489736452 89.987753741527 97.699386845449
44	453767 18493 234 328176 1.11 59.91 589 22.777786254883 33.044186194341 18331.909141491 574105.25722742
46	472260 10314 234 328176 1.11 59.91 589 2 2 1178 2356
58	482574 23689 832 328212 1.212436518457 59.912442230835 588 0.099987083983 0.100012929531 58.800005141514 5.880001029461
57	506263 23705 1244 328630 1.297803768965 59.997810156477 588 0.099987086433 0.100012910084 58.800005816662 5.8800011644882
56	529968 16109 832 328212 1.212436518457 59.912442230835 588 2 2 1176 2352
55	546077 16125 1244 328630 1.297803768965 59.997810156477 588 2 2 1176 2352
54	562202 858 5170 328664 2 60 59 0 0 0 0
53	563060 1213 5170 328664 2 60 59 0.023296 0.02625 1.545796 0.040508328616
52	564273 858 5170 328664 2 60 59 2 2 118 236
73	565131 19817 235 328177 1.11 59.91 589 -5.4162679035025 1.8008211604309 -7.5188362167874 506.09843770878
72	584948 19867 235 328177 1.11 59.91 589 -3.0623193128513 1.4875466282511 -12.440851671895 307.20032608896
71	604815 12670 235 328177 1.11 59.91 589 36.55 36.55 21527.95 786846.5725
70	617485 18499 235 328177 1.11 59.91 589 141.93872909546 1387.9258258038 450108.23614508 421891457.76172
69	635984 18507 235 328177 1.11 59.91 589 18.818773627592 23.270121276537 12481.651184872 264921.65940672
67	654491 19837 235 328177 1.11 59.91 589 -0.12208275843875 0.89221044459638 90.012769127644 58.140107524684
66	674328 18491 235 328177 1.11 59.91 589 22.776883433365 32.769726722956 18041.596330411 557513.56928209
68	692819 10314 235 328177 1.11 59.91 589 3 3 1767 5301
80	703133 23704 1306 328707 1.307225858285 60.007219275781 588 0.099987133384 0.1000128535 58.799992846645 5.8799985703228
79	726837 23703 1250 328636 1.297803858285 59.997810275781 588 0.09998708643 0.100012910093 58.800005846645 5.8800011704848
78	750540 16115 1306 328707 1.307225858285 60.007219275781 588 3 3 1764 5292
77	766655 16113 1250 328636 1.297803858285 59.997810275781 588 3 3 1764 5292
76	782768 858 5171 328665 2 60 59 0 0 0 0
75	783626 1213 5171 328665 2 60 59 0.023297 0.02625 1.545797 0.040508375209
74	784839 858 5171 328665 2 60 59 3 3 177 531
95	785697 19760 236 328178 1.11 59.91 589 -5.8102255463516 1.7521754325158 -9.0199146413664 502.64124137594
94	805457 19774 236 328178 1.11 59.91 589 -3.2843403548977 1.4622226027441 -12.582245574298 307.61751142655
93	825231 12670 236 328178 1.11 59.91 589 36.55 36.55 21527.95 786846.5725
92	837901 18495 236 328178 1.11 59.91 589 115.16095046997 1352.1502053214 429974.58954326 390762423.07309
91	856396 18501 236 328178 1.11 59.91 589 18.576130298126 23.161098969016 12391.67120066 261130.47488537
89	874897 19724 236 328178 1.11 59.91 589 -0.06637005336971 0.66445219371978 90.104392728673 43.918040862851
88	894621 18504 236 328178 1.11 59.91 589 22.777778625488 32.604390643992 17775.847002139 542259.22217704
90	913125 10314 236 328178 1.11 59.91 589 4 4 2356 9424
102	923439 24293 902 328288 1.235040697099 59.935046469473 588 0.0999870835 0.100012929563 58.80000520151 5.8800010414602
101	947732 24287 1256 328642 1.297803947606 59.997810395115 588 0.099987086425 0.10001291013 58.800005876658 5.8800011764874
100	972019 16711 902 328288 1.235040697099 59.935046469473 588 4 4 2352 9408
99	988730 16131 1256 328642 1.297803947606 59.997810395115 588 4 4 2352 9408
98	1004861 858 5172 328666 2 60 59 0 0 0 0
97	1005719 1213 5172 328666 2 60 59 0.023297 0.02625 1.545797 0.040508375209
96	1006932 858 5172 328666 2 60 59 4 4 236 944
117	1007790 20363 237 328179 1.11 59.91 589 -6.2050143653226 1.6258677479067 -17.461554502688 497.06689286921
116	1028153 20366 237 328179 1.11 59.91 589 -3.5069589216182 1.4035821122093 -12.348557491301 310.40784027871
115	1048519 13259 237 328179 1.11 59.91 589 36.55 36.55 21527.95 786846.5725
114	1061778 19061 237 328179 1.11 59.91 589 88.383171844482 1316.35172471 410083.76005573 361215157.91115
113	1080839 19085 237 328179 1.11 59.91 589 18.32584631445 22.971573750924 12301.470915004 257364.799986
111	1099924 20195 237 328179 1.11 59.91 589 -0.047801971134238 0.53483289671777 90.326108112057 35.41801916804
110	1120119 19104 237 328179 1.11 59.91 589 22.777778625488 32.44893233026 17533.025481812 528220.01214944
112	1139223 10903 237 328179 1.11 59.91 589 5 5 2945 14725
124	1150126 24280 1178 328564 1.297390322347 59.997383306318 588 0.09998713932 0.100012850732 58.799992413108 5.8799984836149
123	1174406 24285 1262 328648 1.297804036928 59.997810514524 588 0.099987086417 0.100012910193 58.800005906746 5.880001182505
122	1198691 16706 1178 328564 1.297390322347 59.997383306318 588 5 5 2940 14700
121	1215397 16705 1262 328648 1.297804036928 59.997810514524 588 5 5 2940 14700
120	1232102 917 5173 328667 2 60 59 0 0 0 0
119	1233019 1272 5173 328667 2 60 59 0.023297 0.02625 1.545797 0.040508375209
118	1234291 917 5173 328667 2 60 59 5 5 295 1475
139	1235208 20319 238 328180 1.11 59.91 589 -6.5981338632971 1.6163365459354 -9.2116344454917 517.6069992274
138	1255527 20355 238 328180 1.11 59.91 589 -3.7306963948325 1.3567709221977 -12.466155003461 314.79633769
137	1275882 13259 238 328180 1.11 59.91 589 36.55 36.55 21527.95 786846.5725
136	1289141 19082 238 328180 1.11 59.91 589 61.605393218994 1280.5102603697 390416.61413329 333227317.79815
135	1308223 19090 238 328180 1.11 59.91 589 18.075697268533 22.700210410568 12210.833814529 253613.58846923
133	1327313 20123 238 328180 1.11 59.91 589 -0.035723157109715 0.46183644883342 90.760586049524 29.539751165056
132	1347436 19080 238 328180 1.11 59.91 589 22.777778625488 32.315025551512 17309.333180434 515192.02483308
134	1366516 10903 238 328180 1.11 59.91 589 6 6 3534 21204
146	1377419 24248 970 328356 1.248713875741 59.948706708437 588 0.099987025582 0.100012970892 58.799992261832 5.8799984536958
145	1401667 24297 1268 328654 1.297804126249 59.997810634075 588 0.099987086406 0.100012910287 58.800005936976 5.880001188551
144	1425964 16685 970 328356 1.248713875741 59.948706708437 588 6 6 3528 21168
143	1442649 16709 1268 328654 1.297804126249 59.997810634075 588 6 6 3528 21168
142	1459358 917 5174 328668 2 60 59 0 0 0 0
141	1460275 1272 5174 328668 2 60 59 0.023297 0.02625 1.545797 0.040508375209
140	1461547 917 5174 328668 2 60 59 6 6 354 2124
161	1462464 20269 239 328181 1.11 59.91 589 -6.9922451797424 1.5452557268063 -13.29458379971 525.50105224798
160	1482733 20321 239 328181 1.11 59.91 589 -3.9527707454972 1.31180056446 -12.309792547519 320.41045072567
159	1503054 13259 239 328181 1.11 59.91 589 36.55 36.55 21527.95 786846.5725
158	1516313 19092 239 328181 1.11 59.91 589 34.827616024017 1244.6070834132 370959.20102524 306779426.19716
157	1535405 19065 239 328181 1.11 59.91 589 17.830106256922 22.369606078399 12119.589543707 249869.88315417
155	1554470 20036 239 328181 1.11 59.91 589 -0.02722177067113 0.39775112192376 91.368932372464 25.211714653597
154	1574506 19087 239 328181 1.11 59.91 589 22.777777194977 32.20698076096 17099.588222627 502905.20985148
156	1593593 10903 239 328181 1.11 59.91 589 7 7 4123 28861
168	1604496 24283 1040 328426 1.263894965062 59.963887828194 588 0.099987139342 0.100012851001 58.799992292268 5.879998459447
167	1628779 24277 1274 328660 1.297804215571 59.99781075383 588 0.099987086397 0.100012910395 58.80000596741 5.8800011946378
166	1653056 16696 1040 328426 1.263894965062 59.963887828194 588 7 7 4116 28812
165	1669752 16704 1274 328660 1.297804215571 59.99781075383 588 7 7 4116 28812
164	1686456 917 5175 328669 2 60 59 0 0 0 0
163	1687373 1272 5175 328669 2 60 59 0.023297 0.02625 1.545797 0.040508375209
162	1688645 917 5175 328669 2 60 59 7 7 413 2891
