file 997110 1501595944                                          
version 2
run SinusoidalJammingDetail-35-20170801-15:58:45-86088
attr CACCSpacing 7
attr attackAcc -30
attr attackPos 7
attr attackSpeed 150
attr attackStart 30.5
attr attacker 1
attr beaconInterval 0.1
attr configname SinusoidalJammingDetail
attr controller 1
attr datetime 20170801-15:58:45
attr experiment SinusoidalJammingDetail
attr fakeAcc "(1 == 4)"
attr fakePos "(1 == 2)"
attr fakeSpeed "(1 == 3)"
attr inifile omnetpp_35.ini
attr iterationvars "$leaderSpeed=50, $controller=1, $CACCSpacing=7, $sController=\"CACC\", $attacker=1, $attackStart=30.5, $attackSpeed=150, $attackPos=7, $attackAcc=-30, $0=7, $1=0, $nCars=8, $platoonSize=8, $nLanes=1, $beaconInterval=0.1, $priority=2, $packetSize=200, $ploegH=0.5, $leaderHeadway=1.2, $fakeSpeed=(1 == 3), $fakeAcc=(1 == 4), $fakePos=(1 == 2)"
attr iterationvarsf leaderSpeed=50,controller=1,CACCSpacing=7,sController=CACC,attacker=1,attackStart=30.5,attackSpeed=150,attackPos=7,attackAcc=-30,7,0,nCars=8,platoonSize=8,nLanes=1,beaconInterval=0.1,priority=2,packetSize=200,ploegH=0.5,leaderHeadway=1.2,fakeSpeed=(1_==_3),fakeAcc=(1_==_4),fakePos=(1_==_2)-
attr leaderHeadway 1.2
attr leaderSpeed 50
attr measurement "$leaderSpeed=50, $controller=1, $CACCSpacing=7, $sController=\"CACC\", $attacker=1, $attackStart=30.5, $attackSpeed=150, $attackPos=7, $attackAcc=-30, $0=7, $1=0, $nCars=8, $platoonSize=8, $nLanes=1, $beaconInterval=0.1, $priority=2, $packetSize=200, $ploegH=0.5, $leaderHeadway=1.2, $fakeSpeed=(1 == 3), $fakeAcc=(1 == 4), $fakePos=(1 == 2)"
attr nCars 8
attr nLanes 1
attr network scenario
attr packetSize 200
attr platoonSize 8
attr ploegH 0.5
attr priority 2
attr processid 86088
attr repetition 0
attr replication #0
attr resultdir results
attr runnumber 35
attr sController "\"CACC\""
attr seedset 0
param **.coreDebug false
param **.debug false
param **.headway 0.1s
param **.numberOfCars 8
param **.numberOfCarsPerPlatoon 8
param **.numberOfLanes 1
param **.numericController 1
param **.traffic.nCars 8
param **.traffic.nLanes 1
param **.traffic.platoonInsertDistance 7m
param **.traffic.platoonInsertHeadway 0s
param **.traffic.platoonInsertSpeed 50kmph
param **.traffic.platoonInsertTime "1 s"
param **.traffic.platoonLeaderHeadway 1.2s
param **.traffic.platoonSize 8
param **.traffic.platooningVType "\"vtypeauto\""
param **.traffic_type "\"PlatoonsTrafficManager\""
param *.**.nic.mac1609_4.bitrate 6Mbps
param *.**.nic.mac1609_4.txPower 100mW
param *.**.nic.mac1609_4.useServiceChannel false
param *.**.nic.phy80211p.analogueModels "xmldoc(\"config.xml\")"
param *.**.nic.phy80211p.decider "xmldoc(\"config.xml\")"
param *.**.nic.phy80211p.maxTXPower 100mW
param *.**.nic.phy80211p.sensitivity -94dBm
param *.**.nic.phy80211p.thermalNoise -95dBm
param *.**.nic.phy80211p.usePropagationDelay true
param *.**.nic.phy80211p.useThermalNoise true
param *.annotations.draw false
param *.connectionManager.alpha 2.0
param *.connectionManager.carrierFrequency "5.890e9 Hz"
param *.connectionManager.pMax 100mW
param *.connectionManager.sat -94dBm
param *.connectionManager.sendDirect true
param *.manager.autoShutdown true
param *.manager.commandLine "\"sumo --remote-port $port --seed $seed --configuration-file $configFile\""
param *.manager.configFile "\"./sumocfg/freeway.sumo.cfg\""
param *.manager.host "\"localhost\""
param *.manager.margin 25
param *.manager.moduleDisplayString "\"\""
param *.manager.moduleName "\"node\""
param *.manager.moduleType "\"Car\""
param *.manager.updateInterval 0.01s
param *.node[*].appl.attackStart 30.5s
param *.node[*].appl.attackerType 1
param *.node[*].appl.simulationDuration "60 s"
param *.node[*].appl_type "\"SimplePlatooningApp\""
param *.node[*].helper.nCars 8
param *.node[*].helper.nLanes 1
param *.node[*].helper.platoonSize 8
param *.node[*].helper_type "\"PositionHelper\""
param *.node[*].mobility.x 0
param *.node[*].mobility.y 0
param *.node[*].mobility.z 1.895
param *.node[*].prot.attackStart 30.5s
param *.node[*].prot.attackerType 1
param *.node[*].prot.attackingNode 3
param *.node[*].prot.beaconingInterval 0.1s
param *.node[*].prot.fakeAcc "(1 == 4)"
param *.node[*].prot.fakePos "(1 == 2)"
param *.node[*].prot.fakeSpeed "(1 == 3)"
param *.node[*].prot.maliciousAcc "-30 mpss"
param *.node[*].prot.maliciousSpeed 150kmph
param *.node[*].prot.packetSize 200
param *.node[*].prot.priority 2
param *.node[*].prot.shiftX "7 m"
param *.node[*].prot.useControllerAcceleration true
param *.node[*].protocol_type "\"SimplePlatooningBeaconing\""
param *.node[*].scenario.accHeadway 0.1s
param *.node[*].scenario.caccC1 0.5
param *.node[*].scenario.caccOmegaN "0.2 Hz"
param *.node[*].scenario.caccSpacing 7m
param *.node[*].scenario.caccXi 1
param *.node[*].scenario.controller "\"CACC\""
param *.node[*].scenario.engineTau "0.5 s"
param *.node[*].scenario.leaderHeadway 1.2s
param *.node[*].scenario.leaderOscillationFrequency "0.2 Hz"
param *.node[*].scenario.leaderSpeed 50kmph
param *.node[*].scenario.oscillationAmplitude "10 kmph"
param *.node[*].scenario.ploegH 0.5s
param *.node[*].scenario.ploegKd 0.7
param *.node[*].scenario.ploegKp 0.2
param *.node[*].scenario.startOscillating "5 s"
param *.node[*].scenario.useRealisticEngine false
param *.node[*].scenario_type "\"SinusoidalScenario\""
param *.node[*].unicast.packetLossRate 0
param *.obstacles.debug false
param *.playgroundSizeX 65000m
param *.playgroundSizeY 25000m
param *.playgroundSizeZ 50m
param *.world.use2D false
param *.world.useTorus false

vector 0  scenario.node[0].appl  distance  ETV
vector 1  scenario.node[0].appl  relativeSpeed  ETV
vector 2  scenario.node[0].appl  nodeId  ETV
vector 6  scenario.node[0].appl  acceleration  ETV
vector 7  scenario.node[0].appl  controllerAcceleration  ETV
vector 3  scenario.node[0].appl  speed  ETV
vector 4  scenario.node[0].appl  posx  ETV
vector 5  scenario.node[0].appl  posy  ETV
vector 22  scenario.node[1].appl  distance  ETV
vector 23  scenario.node[1].appl  relativeSpeed  ETV
vector 24  scenario.node[1].appl  nodeId  ETV
vector 28  scenario.node[1].appl  acceleration  ETV
vector 29  scenario.node[1].appl  controllerAcceleration  ETV
vector 25  scenario.node[1].appl  speed  ETV
vector 26  scenario.node[1].appl  posx  ETV
vector 27  scenario.node[1].appl  posy  ETV
vector 44  scenario.node[2].appl  distance  ETV
vector 45  scenario.node[2].appl  relativeSpeed  ETV
vector 46  scenario.node[2].appl  nodeId  ETV
vector 50  scenario.node[2].appl  acceleration  ETV
vector 51  scenario.node[2].appl  controllerAcceleration  ETV
vector 47  scenario.node[2].appl  speed  ETV
vector 48  scenario.node[2].appl  posx  ETV
vector 49  scenario.node[2].appl  posy  ETV
vector 66  scenario.node[3].appl  distance  ETV
vector 67  scenario.node[3].appl  relativeSpeed  ETV
vector 68  scenario.node[3].appl  nodeId  ETV
vector 72  scenario.node[3].appl  acceleration  ETV
vector 73  scenario.node[3].appl  controllerAcceleration  ETV
vector 69  scenario.node[3].appl  speed  ETV
vector 70  scenario.node[3].appl  posx  ETV
vector 71  scenario.node[3].appl  posy  ETV
vector 88  scenario.node[4].appl  distance  ETV
vector 89  scenario.node[4].appl  relativeSpeed  ETV
vector 90  scenario.node[4].appl  nodeId  ETV
vector 94  scenario.node[4].appl  acceleration  ETV
vector 95  scenario.node[4].appl  controllerAcceleration  ETV
vector 91  scenario.node[4].appl  speed  ETV
vector 92  scenario.node[4].appl  posx  ETV
vector 93  scenario.node[4].appl  posy  ETV
vector 110  scenario.node[5].appl  distance  ETV
vector 111  scenario.node[5].appl  relativeSpeed  ETV
vector 112  scenario.node[5].appl  nodeId  ETV
vector 116  scenario.node[5].appl  acceleration  ETV
vector 117  scenario.node[5].appl  controllerAcceleration  ETV
vector 113  scenario.node[5].appl  speed  ETV
vector 114  scenario.node[5].appl  posx  ETV
vector 115  scenario.node[5].appl  posy  ETV
vector 132  scenario.node[6].appl  distance  ETV
vector 133  scenario.node[6].appl  relativeSpeed  ETV
vector 134  scenario.node[6].appl  nodeId  ETV
vector 138  scenario.node[6].appl  acceleration  ETV
vector 139  scenario.node[6].appl  controllerAcceleration  ETV
vector 135  scenario.node[6].appl  speed  ETV
vector 136  scenario.node[6].appl  posx  ETV
vector 137  scenario.node[6].appl  posy  ETV
vector 154  scenario.node[7].appl  distance  ETV
vector 155  scenario.node[7].appl  relativeSpeed  ETV
vector 156  scenario.node[7].appl  nodeId  ETV
vector 160  scenario.node[7].appl  acceleration  ETV
vector 161  scenario.node[7].appl  controllerAcceleration  ETV
vector 157  scenario.node[7].appl  speed  ETV
vector 158  scenario.node[7].appl  posx  ETV
vector 159  scenario.node[7].appl  posy  ETV
vector 80  scenario.node[3].prot  frontDelay  ETV
vector 78  scenario.node[3].prot  frontDelayId  ETV
vector 58  scenario.node[2].prot  frontDelay  ETV
vector 56  scenario.node[2].prot  frontDelayId  ETV
vector 168  scenario.node[7].prot  frontDelay  ETV
vector 166  scenario.node[7].prot  frontDelayId  ETV
vector 35  scenario.node[1].prot  leaderDelay  ETV
vector 33  scenario.node[1].prot  leaderDelayId  ETV
vector 36  scenario.node[1].prot  frontDelay  ETV
vector 34  scenario.node[1].prot  frontDelayId  ETV
vector 57  scenario.node[2].prot  leaderDelay  ETV
vector 55  scenario.node[2].prot  leaderDelayId  ETV
vector 79  scenario.node[3].prot  leaderDelay  ETV
vector 77  scenario.node[3].prot  leaderDelayId  ETV
vector 101  scenario.node[4].prot  leaderDelay  ETV
vector 99  scenario.node[4].prot  leaderDelayId  ETV
vector 123  scenario.node[5].prot  leaderDelay  ETV
vector 121  scenario.node[5].prot  leaderDelayId  ETV
vector 145  scenario.node[6].prot  leaderDelay  ETV
vector 143  scenario.node[6].prot  leaderDelayId  ETV
vector 167  scenario.node[7].prot  leaderDelay  ETV
vector 165  scenario.node[7].prot  leaderDelayId  ETV
vector 124  scenario.node[5].prot  frontDelay  ETV
vector 122  scenario.node[5].prot  frontDelayId  ETV
vector 102  scenario.node[4].prot  frontDelay  ETV
vector 100  scenario.node[4].prot  frontDelayId  ETV
vector 146  scenario.node[6].prot  frontDelay  ETV
vector 144  scenario.node[6].prot  frontDelayId  ETV
vector 8  scenario.node[0].prot  nodeId  ETV
vector 9  scenario.node[0].prot  busyTime  ETV
vector 10  scenario.node[0].prot  collisions  ETV
vector 30  scenario.node[1].prot  nodeId  ETV
vector 31  scenario.node[1].prot  busyTime  ETV
vector 32  scenario.node[1].prot  collisions  ETV
vector 52  scenario.node[2].prot  nodeId  ETV
vector 53  scenario.node[2].prot  busyTime  ETV
vector 54  scenario.node[2].prot  collisions  ETV
vector 74  scenario.node[3].prot  nodeId  ETV
vector 75  scenario.node[3].prot  busyTime  ETV
vector 76  scenario.node[3].prot  collisions  ETV
vector 96  scenario.node[4].prot  nodeId  ETV
vector 97  scenario.node[4].prot  busyTime  ETV
vector 98  scenario.node[4].prot  collisions  ETV
vector 118  scenario.node[5].prot  nodeId  ETV
vector 119  scenario.node[5].prot  busyTime  ETV
vector 120  scenario.node[5].prot  collisions  ETV
vector 140  scenario.node[6].prot  nodeId  ETV
vector 141  scenario.node[6].prot  busyTime  ETV
vector 142  scenario.node[6].prot  collisions  ETV
vector 162  scenario.node[7].prot  nodeId  ETV
vector 163  scenario.node[7].prot  busyTime  ETV
vector 164  scenario.node[7].prot  collisions  ETV
7	11235 8330 232 195424 1.11 36.11 351 -1.5 1.5 3.3220274660767 564.10883084302
6	19565 11017 232 195424 1.11 36.11 351 -1.472274679513 1.4513407705126 -4.0201668081759 375.47640689221
5	30582 7083 232 195424 1.11 36.11 351 36.55 36.55 12829.05 468901.7775
4	37665 10559 232 195424 1.11 36.11 351 111.82875404345 601.03599742939 125698.67150972 52072049.089812
3	48224 10554 232 195424 1.11 36.11 351 12.59908680102 15.853603639796 4905.8110435952 68830.814538988
1	58778 5679 232 195424 1.11 36.11 351 0 0 0 0
0	64457 6030 232 195424 1.11 36.11 351 -1 -1 -351 351
2	70487 5679 232 195424 1.11 36.11 351 0 0 0 0
10	76166 498 5102 194724 2 36 35 0 0 0 0
9	76664 674 5102 194724 2 36 35 0.022969 0.02625 0.915469 0.023955699961
8	77338 463 5102 194724 2 36 35 0 0 0 0
51	77801 11318 234 195426 1.11 36.11 351 -1.4952754267034 1.4970992125241 29.184407061274 482.28904840213
50	89119 11369 234 195426 1.11 36.11 351 -1.4761121290563 1.4494360546511 28.75729521574 340.47567490091
49	100488 7434 234 195426 1.11 36.11 351 36.55 36.55 12829.05 468901.7775
48	107922 10898 234 195426 1.11 36.11 351 89.828754043579 587.41332159083 118074.06447416 46824584.857498
47	118820 10908 234 195426 1.11 36.11 351 12.600718385035 16.758981794149 4990.7401814063 71344.880385254
45	129728 11898 234 195426 1.11 36.11 351 -0.68064380483179 0.039108605105239 -14.496378226907 6.7114039873386
44	141626 10894 234 195426 1.11 36.11 351 5.6098402080208 7.0735113438961 2437.1743366692 16938.611978629
46	152520 6030 234 195426 1.11 36.11 351 2 2 702 1404
58	158550 13987 900 195536 1.22965810076 36.1296555669 350 0.099998935165 0.100012029528 34.999996493516 3.4999993027714
57	172537 13937 1038 195117 1.254911541064 36.054832006207 349 0.099907953613 0.100090028707 34.899932492519 3.4899870906555
56	186474 9476 900 195536 1.22965810076 36.1296555669 350 2 2 700 1400
55	195950 9438 1038 195117 1.254911541064 36.054832006207 349 2 2 698 1396
54	205388 498 5104 194726 2 36 35 0 0 0 0
53	205886 709 5104 194726 2 36 35 0.022969 0.02625 0.915469 0.023955699961
52	206595 498 5104 194726 2 36 35 2 2 70 140
73	207093 11307 235 195427 1.11 36.11 351 -1.4890877726286 1.4891492922908 34.06682949324 475.19524833028
72	218400 11368 235 195427 1.11 36.11 351 -1.4634887733029 1.4362581131548 33.136261303048 340.01693214755
71	229768 7434 235 195427 1.11 36.11 351 36.55 36.55 12829.05 468901.7775
70	237202 10905 235 195427 1.11 36.11 351 78.828754043579 577.21834595188 114223.67561584 44282076.899816
69	248107 10901 235 195427 1.11 36.11 351 12.613692769581 17.191603278782 4998.9429001221 71611.227842361
67	259008 12011 235 195427 1.11 36.11 351 -0.43379608065216 0.020412768889207 -8.4902916679472 2.35967481156
66	271019 10887 235 195427 1.11 36.11 351 6.2036280686432 7.0493611819024 2446.5529126902 17058.014106586
68	281906 6030 235 195427 1.11 36.11 351 3 3 1053 3159
80	287936 13975 832 195468 1.213905064068 36.113902536911 350 0.099998935473 0.100012029817 34.999996500219 3.4999993041113
79	301911 13949 1044 195123 1.254911577756 36.0548320403 349 0.099907953491 0.100090028716 34.89993248992 3.4899870901357
78	315860 9465 832 195468 1.213905064068 36.113902536911 350 3 3 1050 3150
77	325325 9448 1044 195123 1.254911577756 36.0548320403 349 3 3 1047 3141
76	334773 498 5105 194727 2 36 35 0 0 0 0
75	335271 709 5105 194727 2 36 35 0.022968 0.02625 0.915468 0.023955654024
74	335980 498 5105 194727 2 36 35 3 3 105 315
95	336478 11283 236 195428 1.11 36.11 351 -1.4821537219925 1.4817994872658 37.07180446977 468.3629542036
94	347761 11338 236 195428 1.11 36.11 351 -1.4527428031657 1.4261913680079 35.82283562493 338.79222690618
93	359099 7434 236 195428 1.11 36.11 351 36.55 36.55 12829.05 468901.7775
92	366533 10910 236 195428 1.11 36.11 351 67.828754043579 566.6804637117 110368.26083378 41818478.799675
91	377443 10899 236 195428 1.11 36.11 351 12.624076830247 17.457005712471 5003.6576017168 71765.444040461
89	388342 12044 236 195428 1.11 36.11 351 -0.26788944362426 0.014563172885763 -5.0460642077628 0.83485532313775
88	400386 10881 236 195428 1.11 36.11 351 6.5431902888548 7.0268301000228 2451.5090760927 17123.796529769
90	411267 6030 236 195428 1.11 36.11 351 4 4 1404 5616
102	417297 14292 1246 195326 1.303561907984 36.103560362434 349 0.099998935951 0.100012029807 34.899997481826 3.4899995004313
101	431589 14286 1050 195129 1.254911614448 36.054832075504 349 0.099907953417 0.100090028719 34.899932488432 3.4899870898381
100	445875 9791 1246 195326 1.303561907984 36.103560362434 349 4 4 1396 5584
99	455666 9446 1050 195129 1.254911614448 36.054832075504 349 4 4 1396 5584
98	465112 498 5106 194728 2 36 35 0 0 0 0
97	465610 709 5106 194728 2 36 35 0.022969 0.02625 0.915469 0.023955699961
96	466319 498 5106 194728 2 36 35 4 4 140 560
117	466817 11639 237 195429 1.11 36.11 351 -1.4896672653972 1.4914667346089 39.700385867677 484.08816520797
116	478456 11705 237 195429 1.11 36.11 351 -1.4475619112307 1.4230601839667 37.497767523762 338.87517640814
115	490161 7785 237 195429 1.11 36.11 351 36.55 36.55 12829.05 468901.7775
114	497946 11265 237 195429 1.11 36.11 351 56.82875213623 555.99613302413 106511.39208919 39437772.346444
113	509211 11256 237 195429 1.11 36.11 351 12.626712614361 17.618995471362 5006.8715781702 71870.785823707
111	520467 12266 237 195429 1.11 36.11 351 -0.16543855395613 0.039951795827154 -3.5722048096067 0.56124180298685
110	532733 11257 237 195429 1.11 36.11 351 6.687570482747 7.0346851239957 2452.9330241251 17143.030561494
112	543990 6381 237 195429 1.11 36.11 351 5 5 1755 8775
124	550371 14304 1172 195251 1.265747871292 36.065746327746 349 0.099998936072 0.100012029547 34.89999748383 3.4899995008335
123	564675 14288 1056 195135 1.25491165114 36.054832111175 349 0.099907953374 0.100090028712 34.899932487411 3.4899870896339
122	578963 9800 1172 195251 1.265747871292 36.065746327746 349 5 5 1745 8725
121	588763 9793 1056 195135 1.25491165114 36.054832111175 349 5 5 1745 8725
120	598556 533 5107 194729 2 36 35 0 0 0 0
119	599089 744 5107 194729 2 36 35 0.022968 0.02625 0.915468 0.023955654024
118	599833 533 5107 194729 2 36 35 5 5 175 875
139	600366 11623 238 195430 1.11 36.11 351 -1.4807582969135 1.4812783425881 40.199814150026 475.05208185278
138	611989 11680 238 195430 1.11 36.11 351 -1.4503739142492 1.4264948351428 38.515818742733 343.4317609066
137	623669 7785 238 195430 1.11 36.11 351 36.55 36.55 12829.05 468901.7775
136	631454 11262 238 195430 1.11 36.11 351 45.82875213623 545.17650168134 102652.0284263 37139137.011745
135	642716 11252 238 195430 1.11 36.11 351 12.62012920659 17.72193533279 5008.7115691481 71934.796937236
133	653968 12299 238 195430 1.11 36.11 351 -0.10701778012538 0.022610054948423 -2.2149686531335 0.18996922638264
132	666267 11248 238 195430 1.11 36.11 351 6.8216901400181 7.0142921835367 2455.4004627054 17176.872539236
134	677515 6381 238 195430 1.11 36.11 351 6 6 2106 12636
146	683896 14311 1312 195392 1.305157981368 36.105156434173 349 0.099998935865 0.10001202946 34.899997480181 3.4899995001036
145	698207 14298 1062 195141 1.254911687832 36.054832147286 349 0.099907953346 0.100090028711 34.89993248683 3.4899870895177
144	712505 9807 1312 195392 1.305157981368 36.105156434173 349 6 6 2094 12564
143	722312 9795 1062 195141 1.254911687832 36.054832147286 349 6 6 2094 12564
142	732107 533 5108 194730 2 36 35 0 0 0 0
141	732640 744 5108 194730 2 36 35 0.022969 0.02625 0.915469 0.023955699961
140	733384 533 5108 194730 2 36 35 6 6 210 1260
161	733917 11625 239 195431 1.11 36.11 351 -1.4938774158628 1.4938088546064 41.627428523932 491.97999023698
160	745542 11701 239 195431 1.11 36.11 351 -1.4564665653559 1.4312228046954 39.180195911839 346.29684278854
159	757243 7785 239 195431 1.11 36.11 351 36.55 36.55 12829.05 468901.7775
158	765028 11255 239 195431 1.11 36.11 351 34.82875213623 534.23597003027 98790.324424736 34923025.85133
157	776283 11256 239 195431 1.11 36.11 351 12.617540641839 17.783800078214 5009.3283267785 71958.529865159
155	787539 12478 239 195431 1.11 36.11 351 -0.066356534624834 0.011006392984019 -1.0019158178665 0.055601630347843
154	800017 11245 239 195431 1.11 36.11 351 6.941768945985 7.0256963559965 2457.716336717 17209.103010851
156	811262 6381 239 195431 1.11 36.11 351 7 7 2457 17199
168	817643 14309 975 195054 1.25443328422 36.054431809414 349 0.099998939143 0.100012029731 34.89999755257 3.4899995145807
167	831952 14304 1068 195147 1.254911724524 36.054832183792 349 0.099907953329 0.100090028718 34.899932486644 3.4899870894805
166	846256 9799 975 195054 1.25443328422 36.054431809414 349 7 7 2443 17101
165	856055 9796 1068 195147 1.254911724524 36.054832183792 349 7 7 2443 17101
164	865851 533 5109 194731 2 36 35 0 0 0 0
163	866384 744 5109 194731 2 36 35 0.022969 0.02625 0.915469 0.023955699961
162	867128 533 5109 194731 2 36 35 7 7 245 1715
22	867661 10919 233 195568 1.11 36.13 352 0 7.4080322434266 2381.1312816523 16520.150053423
23	878580 11856 233 195568 1.11 36.13 352 -3.4434969477338 0.38603051000929 -73.232000534738 216.89921838749
24	890436 6048 233 195568 1.11 36.13 352 1 1 352 352
25	896484 10940 233 195568 1.11 36.13 352 12.594909075003 16.084668004136 4992.5395550473 71146.543876075
26	907424 10931 233 195568 1.11 36.13 352 100.82875404358 597.33107502764 122512.28433386 49797401.120539
27	918355 7456 233 195568 1.11 36.13 352 36.55 36.55 12865.6 470237.68
28	925811 11405 233 195568 1.11 36.13 352 -1.4840815552393 1.4595456976263 21.829605375367 336.41731077337
29	937216 11365 233 195568 1.11 36.13 352 -1.5129716528829 1.512964842033 21.55326218486 487.61419347671
30	948581 498 5103 194725 2 36 35 1 1 35 35
31	949079 709 5103 194725 2 36 35 0.022969 0.02625 0.915469 0.023955699961
32	949788 498 5103 194725 2 36 35 0 0 0 0
33	950286 9454 1032 195111 1.254911504372 36.054831974062 349 1 1 349 349
34	959740 9454 1032 195111 1.254911504372 36.054831974062 349 1 1 349 349
35	969194 13958 1032 195111 1.254911504372 36.054831974062 349 0.099907953812 0.100090028691 34.899932497066 3.4899870915649
36	983152 13958 1032 195111 1.254911504372 36.054831974062 349 0.099907953812 0.100090028691 34.899932497066 3.4899870915649
