file 1682081 1501768773                                         
version 2
run SinusoidalJammingDetail-662-20170803-15:59:03-89988
attr CACCSpacing 5
attr attackAcc -30
attr attackPos 7
attr attackSpeed 150
attr attackStart 30
attr attacker 1
attr beaconInterval 0.1
attr configname SinusoidalJammingDetail
attr controller 2
attr datetime 20170803-15:59:03
attr experiment SinusoidalJammingDetail
attr fakeAcc "(1 == 4)"
attr fakePos "(1 == 2)"
attr fakeSpeed "(1 == 3)"
attr inifile omnetpp_662.ini
attr iterationvars "$leaderSpeed=100, $controller=2, $CACCSpacing=5, $sController=\"PLOEG\", $attacker=1, $attackStart=30, $attackSpeed=150, $attackPos=7, $attackAcc=-30, $0=5, $1=0.5, $nCars=8, $platoonSize=8, $nLanes=1, $beaconInterval=0.1, $priority=2, $packetSize=200, $ploegH=0.5, $leaderHeadway=1.2, $fakeSpeed=(1 == 3), $fakeAcc=(1 == 4), $fakePos=(1 == 2)"
attr iterationvarsf leaderSpeed=100,controller=2,CACCSpacing=5,sController=PLOEG,attacker=1,attackStart=30,attackSpeed=150,attackPos=7,attackAcc=-30,5,0.5,nCars=8,platoonSize=8,nLanes=1,beaconInterval=0.1,priority=2,packetSize=200,ploegH=0.5,leaderHeadway=1.2,fakeSpeed=(1_==_3),fakeAcc=(1_==_4),fakePos=(1_==_2)-
attr leaderHeadway 1.2
attr leaderSpeed 100
attr measurement "$leaderSpeed=100, $controller=2, $CACCSpacing=5, $sController=\"PLOEG\", $attacker=1, $attackStart=30, $attackSpeed=150, $attackPos=7, $attackAcc=-30, $0=5, $1=0.5, $nCars=8, $platoonSize=8, $nLanes=1, $beaconInterval=0.1, $priority=2, $packetSize=200, $ploegH=0.5, $leaderHeadway=1.2, $fakeSpeed=(1 == 3), $fakeAcc=(1 == 4), $fakePos=(1 == 2)"
attr nCars 8
attr nLanes 1
attr network scenario
attr packetSize 200
attr platoonSize 8
attr ploegH 0.5
attr priority 2
attr processid 89988
attr repetition 2
attr replication #2
attr resultdir results
attr runnumber 662
attr sController "\"PLOEG\""
attr seedset 2
param **.coreDebug false
param **.debug false
param **.headway 0.1s
param **.numberOfCars 8
param **.numberOfCarsPerPlatoon 8
param **.numberOfLanes 1
param **.numericController 2
param **.traffic.nCars 8
param **.traffic.nLanes 1
param **.traffic.platoonInsertDistance 5m
param **.traffic.platoonInsertHeadway 0.5s
param **.traffic.platoonInsertSpeed 100kmph
param **.traffic.platoonInsertTime "1 s"
param **.traffic.platoonLeaderHeadway 1.2s
param **.traffic.platoonSize 8
param **.traffic.platooningVType "\"vtypeauto\""
param **.traffic_type "\"PlatoonsTrafficManager\""
param *.**.nic.mac1609_4.bitrate 6Mbps
param *.**.nic.mac1609_4.txPower 100mW
param *.**.nic.mac1609_4.useServiceChannel false
param *.**.nic.phy80211p.analogueModels "xmldoc(\"config.xml\")"
param *.**.nic.phy80211p.decider "xmldoc(\"config.xml\")"
param *.**.nic.phy80211p.maxTXPower 100mW
param *.**.nic.phy80211p.sensitivity -94dBm
param *.**.nic.phy80211p.thermalNoise -95dBm
param *.**.nic.phy80211p.usePropagationDelay true
param *.**.nic.phy80211p.useThermalNoise true
param *.annotations.draw false
param *.connectionManager.alpha 2.0
param *.connectionManager.carrierFrequency "5.890e9 Hz"
param *.connectionManager.pMax 100mW
param *.connectionManager.sat -94dBm
param *.connectionManager.sendDirect true
param *.manager.autoShutdown true
param *.manager.commandLine "\"sumo --remote-port $port --seed $seed --configuration-file $configFile\""
param *.manager.configFile "\"./sumocfg/freeway.sumo.cfg\""
param *.manager.host "\"localhost\""
param *.manager.margin 25
param *.manager.moduleDisplayString "\"\""
param *.manager.moduleName "\"node\""
param *.manager.moduleType "\"Car\""
param *.manager.updateInterval 0.01s
param *.node[*].appl.attackStart 30s
param *.node[*].appl.attackerType 1
param *.node[*].appl.simulationDuration "60 s"
param *.node[*].appl_type "\"SimplePlatooningApp\""
param *.node[*].helper.nCars 8
param *.node[*].helper.nLanes 1
param *.node[*].helper.platoonSize 8
param *.node[*].helper_type "\"PositionHelper\""
param *.node[*].mobility.x 0
param *.node[*].mobility.y 0
param *.node[*].mobility.z 1.895
param *.node[*].prot.attackStart 30s
param *.node[*].prot.attackerType 1
param *.node[*].prot.attackingNode 3
param *.node[*].prot.beaconingInterval 0.1s
param *.node[*].prot.fakeAcc "(1 == 4)"
param *.node[*].prot.fakePos "(1 == 2)"
param *.node[*].prot.fakeSpeed "(1 == 3)"
param *.node[*].prot.maliciousAcc "-30 mpss"
param *.node[*].prot.maliciousSpeed 150kmph
param *.node[*].prot.packetSize 200
param *.node[*].prot.priority 2
param *.node[*].prot.shiftX "7 m"
param *.node[*].prot.useControllerAcceleration true
param *.node[*].protocol_type "\"SimplePlatooningBeaconing\""
param *.node[*].scenario.accHeadway 0.1s
param *.node[*].scenario.caccC1 0.5
param *.node[*].scenario.caccOmegaN "0.2 Hz"
param *.node[*].scenario.caccSpacing 5m
param *.node[*].scenario.caccXi 1
param *.node[*].scenario.controller "\"PLOEG\""
param *.node[*].scenario.engineTau "0.5 s"
param *.node[*].scenario.leaderHeadway 1.2s
param *.node[*].scenario.leaderOscillationFrequency "0.2 Hz"
param *.node[*].scenario.leaderSpeed 100kmph
param *.node[*].scenario.oscillationAmplitude "10 kmph"
param *.node[*].scenario.ploegH 0.5s
param *.node[*].scenario.ploegKd 0.7
param *.node[*].scenario.ploegKp 0.2
param *.node[*].scenario.startOscillating "5 s"
param *.node[*].scenario.useRealisticEngine false
param *.node[*].scenario_type "\"SinusoidalScenario\""
param *.node[*].unicast.packetLossRate 0
param *.obstacles.debug false
param *.playgroundSizeX 65000m
param *.playgroundSizeY 25000m
param *.playgroundSizeZ 50m
param *.world.use2D false
param *.world.useTorus false

vector 0  scenario.node[0].appl  distance  ETV
vector 1  scenario.node[0].appl  relativeSpeed  ETV
vector 2  scenario.node[0].appl  nodeId  ETV
vector 6  scenario.node[0].appl  acceleration  ETV
vector 7  scenario.node[0].appl  controllerAcceleration  ETV
vector 3  scenario.node[0].appl  speed  ETV
vector 4  scenario.node[0].appl  posx  ETV
vector 5  scenario.node[0].appl  posy  ETV
vector 22  scenario.node[1].appl  distance  ETV
vector 23  scenario.node[1].appl  relativeSpeed  ETV
vector 24  scenario.node[1].appl  nodeId  ETV
vector 28  scenario.node[1].appl  acceleration  ETV
vector 29  scenario.node[1].appl  controllerAcceleration  ETV
vector 25  scenario.node[1].appl  speed  ETV
vector 26  scenario.node[1].appl  posx  ETV
vector 27  scenario.node[1].appl  posy  ETV
vector 44  scenario.node[2].appl  distance  ETV
vector 45  scenario.node[2].appl  relativeSpeed  ETV
vector 46  scenario.node[2].appl  nodeId  ETV
vector 50  scenario.node[2].appl  acceleration  ETV
vector 51  scenario.node[2].appl  controllerAcceleration  ETV
vector 47  scenario.node[2].appl  speed  ETV
vector 48  scenario.node[2].appl  posx  ETV
vector 49  scenario.node[2].appl  posy  ETV
vector 66  scenario.node[3].appl  distance  ETV
vector 67  scenario.node[3].appl  relativeSpeed  ETV
vector 68  scenario.node[3].appl  nodeId  ETV
vector 72  scenario.node[3].appl  acceleration  ETV
vector 73  scenario.node[3].appl  controllerAcceleration  ETV
vector 69  scenario.node[3].appl  speed  ETV
vector 70  scenario.node[3].appl  posx  ETV
vector 71  scenario.node[3].appl  posy  ETV
vector 88  scenario.node[4].appl  distance  ETV
vector 89  scenario.node[4].appl  relativeSpeed  ETV
vector 90  scenario.node[4].appl  nodeId  ETV
vector 94  scenario.node[4].appl  acceleration  ETV
vector 95  scenario.node[4].appl  controllerAcceleration  ETV
vector 91  scenario.node[4].appl  speed  ETV
vector 92  scenario.node[4].appl  posx  ETV
vector 93  scenario.node[4].appl  posy  ETV
vector 110  scenario.node[5].appl  distance  ETV
vector 111  scenario.node[5].appl  relativeSpeed  ETV
vector 112  scenario.node[5].appl  nodeId  ETV
vector 116  scenario.node[5].appl  acceleration  ETV
vector 117  scenario.node[5].appl  controllerAcceleration  ETV
vector 113  scenario.node[5].appl  speed  ETV
vector 114  scenario.node[5].appl  posx  ETV
vector 115  scenario.node[5].appl  posy  ETV
vector 132  scenario.node[6].appl  distance  ETV
vector 133  scenario.node[6].appl  relativeSpeed  ETV
vector 134  scenario.node[6].appl  nodeId  ETV
vector 138  scenario.node[6].appl  acceleration  ETV
vector 139  scenario.node[6].appl  controllerAcceleration  ETV
vector 135  scenario.node[6].appl  speed  ETV
vector 136  scenario.node[6].appl  posx  ETV
vector 137  scenario.node[6].appl  posy  ETV
vector 154  scenario.node[7].appl  distance  ETV
vector 155  scenario.node[7].appl  relativeSpeed  ETV
vector 156  scenario.node[7].appl  nodeId  ETV
vector 160  scenario.node[7].appl  acceleration  ETV
vector 161  scenario.node[7].appl  controllerAcceleration  ETV
vector 157  scenario.node[7].appl  speed  ETV
vector 158  scenario.node[7].appl  posx  ETV
vector 159  scenario.node[7].appl  posy  ETV
vector 168  scenario.node[7].prot  frontDelay  ETV
vector 166  scenario.node[7].prot  frontDelayId  ETV
vector 146  scenario.node[6].prot  frontDelay  ETV
vector 144  scenario.node[6].prot  frontDelayId  ETV
vector 35  scenario.node[1].prot  leaderDelay  ETV
vector 33  scenario.node[1].prot  leaderDelayId  ETV
vector 36  scenario.node[1].prot  frontDelay  ETV
vector 34  scenario.node[1].prot  frontDelayId  ETV
vector 57  scenario.node[2].prot  leaderDelay  ETV
vector 55  scenario.node[2].prot  leaderDelayId  ETV
vector 79  scenario.node[3].prot  leaderDelay  ETV
vector 77  scenario.node[3].prot  leaderDelayId  ETV
vector 101  scenario.node[4].prot  leaderDelay  ETV
vector 99  scenario.node[4].prot  leaderDelayId  ETV
vector 123  scenario.node[5].prot  leaderDelay  ETV
vector 121  scenario.node[5].prot  leaderDelayId  ETV
vector 145  scenario.node[6].prot  leaderDelay  ETV
vector 143  scenario.node[6].prot  leaderDelayId  ETV
vector 167  scenario.node[7].prot  leaderDelay  ETV
vector 165  scenario.node[7].prot  leaderDelayId  ETV
vector 102  scenario.node[4].prot  frontDelay  ETV
vector 100  scenario.node[4].prot  frontDelayId  ETV
vector 80  scenario.node[3].prot  frontDelay  ETV
vector 78  scenario.node[3].prot  frontDelayId  ETV
vector 124  scenario.node[5].prot  frontDelay  ETV
vector 122  scenario.node[5].prot  frontDelayId  ETV
vector 58  scenario.node[2].prot  frontDelay  ETV
vector 56  scenario.node[2].prot  frontDelayId  ETV
vector 8  scenario.node[0].prot  nodeId  ETV
vector 9  scenario.node[0].prot  busyTime  ETV
vector 10  scenario.node[0].prot  collisions  ETV
vector 30  scenario.node[1].prot  nodeId  ETV
vector 31  scenario.node[1].prot  busyTime  ETV
vector 32  scenario.node[1].prot  collisions  ETV
vector 52  scenario.node[2].prot  nodeId  ETV
vector 53  scenario.node[2].prot  busyTime  ETV
vector 54  scenario.node[2].prot  collisions  ETV
vector 74  scenario.node[3].prot  nodeId  ETV
vector 75  scenario.node[3].prot  busyTime  ETV
vector 76  scenario.node[3].prot  collisions  ETV
vector 96  scenario.node[4].prot  nodeId  ETV
vector 97  scenario.node[4].prot  busyTime  ETV
vector 98  scenario.node[4].prot  collisions  ETV
vector 118  scenario.node[5].prot  nodeId  ETV
vector 119  scenario.node[5].prot  busyTime  ETV
vector 120  scenario.node[5].prot  collisions  ETV
vector 140  scenario.node[6].prot  nodeId  ETV
vector 141  scenario.node[6].prot  busyTime  ETV
vector 142  scenario.node[6].prot  collisions  ETV
vector 162  scenario.node[7].prot  nodeId  ETV
vector 163  scenario.node[7].prot  busyTime  ETV
vector 164  scenario.node[7].prot  collisions  ETV
7	11245 13860 232 328174 1.11 59.91 589 -1.5 1.5 -14.445974034379 993.24092368185
6	25105 18594 232 328174 1.11 59.91 589 -1.4722746794938 1.4513434175793 -12.50726914995 675.29835222675
5	43699 12081 232 328174 1.11 59.91 589 36.55 36.55 21527.95 786846.5725
4	55780 17881 232 328174 1.11 59.91 589 197.89330215427 1835.5427676967 599666.6916606 742316540.36522
3	73661 17905 232 328174 1.11 59.91 589 26.487965859734 29.742492528104 16403.83880962 457295.15275867
1	91566 9725 232 328174 1.11 59.91 589 0 0 0 0
0	101291 10314 232 328174 1.11 59.91 589 -1 -1 -589 589
2	111605 9725 232 328174 1.11 59.91 589 0 0 0 0
10	121330 858 5168 328662 2 60 59 0 0 0 0
9	122188 1154 5168 328662 2 60 59 0.023297 0.02625 1.545797 0.040508375209
8	123342 799 5168 328662 2 60 59 0 0 0 0
29	124141 19185 233 328175 1.11 59.91 589 -1.5826817193401 1.5236452404123 4.5188219720549 517.43876112092
28	143326 19236 233 328175 1.11 59.91 589 -1.5019380303386 1.3764410077137 6.2331887559083 373.37050327069
27	162562 12670 233 328175 1.11 59.91 589 36.55 36.55 21527.95 786846.5725
26	175232 18483 233 328175 1.11 59.91 589 175.00441665649 1820.056730651 588893.94409485 721830002.00684
25	193715 18483 233 328175 1.11 59.91 589 26.619150889378 29.810541942597 16478.521573878 461356.39982208
23	212198 19290 233 328175 1.11 59.91 589 -3.0781967259393 1.8889085366769 -74.557691567324 613.70211722929
22	231488 18493 233 328175 1.11 59.91 589 9.8784900396845 18.888885497898 8418.241221032 124263.79357754
24	249981 10314 233 328175 1.11 59.91 589 1 1 589 589
36	260295 23712 1034 328420 1.262218366822 59.962220270357 588 0.099999423036 0.100012656159 58.800001583215 5.8800003205298
35	284007 23712 1034 328420 1.262218366822 59.962220270357 588 0.099999423036 0.100012656159 58.800001583215 5.8800003205298
34	307719 16118 1034 328420 1.262218366822 59.962220270357 588 1 1 588 588
33	323837 16118 1034 328420 1.262218366822 59.962220270357 588 1 1 588 588
32	339955 858 5169 328663 2 60 59 0 0 0 0
31	340813 1213 5169 328663 2 60 59 0.023296 0.02625 1.545796 0.040508328616
30	342026 858 5169 328663 2 60 59 1 1 59 59
51	342884 19226 234 328176 1.11 59.91 589 -1.5981547106829 1.435980703536 6.6896514638815 411.61792758682
50	362110 19266 234 328176 1.11 59.91 589 -1.4653995533457 1.2691212447812 5.903371389876 300.92177947188
49	381376 12670 234 328176 1.11 59.91 589 36.55 36.55 21527.95 786846.5725
48	394046 18507 234 328176 1.11 59.91 589 152.11552352905 1799.8491627762 576997.96870063 698509245.62958
47	412553 18470 234 328176 1.11 59.91 589 26.729583332098 29.87001326848 16505.31952966 462848.63460145
45	431023 19482 234 328176 1.11 59.91 589 -0.7685051845855 0.64291871649282 -26.860287669031 89.468739600328
44	450505 18482 234 328176 1.11 59.91 589 15.335086299607 18.889487902892 9540.5113533372 154897.13143711
46	468987 10314 234 328176 1.11 59.91 589 2 2 1178 2356
58	479301 23704 1312 328707 1.302598053963 60.002599874122 588 0.099999422401 0.100012679589 58.800001499839 5.8800003038579
57	503005 23685 1040 328426 1.262218443171 59.962220337768 588 0.099999423016 0.100012655978 58.800001574277 5.8800003187422
56	526690 16129 1312 328707 1.302598053963 60.002599874122 588 2 2 1176 2352
55	542819 16127 1040 328426 1.262218443171 59.962220337768 588 2 2 1176 2352
54	558946 858 5170 328664 2 60 59 0 0 0 0
53	559804 1213 5170 328664 2 60 59 0.023297 0.02625 1.545797 0.040508375209
52	561017 858 5170 328664 2 60 59 2 2 118 236
73	561875 19270 235 328177 1.11 59.91 589 -1.5460116114728 1.3171448717972 6.064827742769 335.84986091348
72	581145 19343 235 328177 1.11 59.91 589 -1.3993893306321 1.2129298149759 3.606875295231 248.54229946765
71	600488 12670 235 328177 1.11 59.91 589 36.55 36.55 21527.95 786846.5725
70	613158 18495 235 328177 1.11 59.91 589 129.22663040161 1779.7515289813 565088.81241213 675664913.56506
69	631653 18487 235 328177 1.11 59.91 589 26.823540868723 29.918491760721 16533.149271603 464431.92401195
67	650140 19512 235 328177 1.11 59.91 589 -0.7199193819328 0.61272482142343 -27.888775656862 72.982920262545
66	669652 18488 235 328177 1.11 59.91 589 15.385974489705 18.888893127441 9553.7128833418 155345.7186531
68	688140 10314 235 328177 1.11 59.91 589 3 3 1767 5301
80	698454 23685 1176 328556 1.287874672218 59.987876539021 588 0.099999422749 0.100012679297 58.800001546483 5.8800003131866
79	722139 23714 1046 328432 1.26221851952 59.962220404845 588 0.099999422927 0.10001265584 58.800001565005 5.8800003168878
78	745853 16117 1176 328556 1.287874672218 59.987876539021 588 3 3 1764 5292
77	761970 16123 1046 328432 1.26221851952 59.962220404845 588 3 3 1764 5292
76	778093 858 5171 328665 2 60 59 0 0 0 0
75	778951 1213 5171 328665 2 60 59 0.023297 0.02625 1.545797 0.040508375209
74	780164 858 5171 328665 2 60 59 3 3 177 531
95	781022 19311 236 328178 1.11 59.91 589 -1.4655612012434 1.2601805439754 3.4906253323506 280.91518654586
94	800333 19399 236 328178 1.11 59.91 589 -1.323528592598 1.1571510790425 0.56522924877811 210.25612336579
93	819732 12670 236 328178 1.11 59.91 589 36.55 36.55 21527.95 786846.5725
92	832402 18499 236 328178 1.11 59.91 589 106.33774490356 1759.8114528939 553165.44089908 653295513.15948
91	850901 18488 236 328178 1.11 59.91 589 26.904718411558 30.20975431009 16562.530256036 466130.37443383
89	869389 19536 236 328178 1.11 59.91 589 -0.66911310627807 0.58490721195412 -29.417053186391 59.93193743549
88	888925 18514 236 328178 1.11 59.91 589 15.42984035985 18.888885498047 9567.9591327296 155831.34473618
90	907439 10314 236 328178 1.11 59.91 589 4 4 2356 9424
102	917753 24295 1108 328488 1.276580595869 59.976582471419 588 0.099999422823 0.100012679437 58.80000155523 5.880000314936
101	942048 24313 1052 328438 1.262218595869 59.962220471408 588 0.099999422823 0.100012655746 58.800001555219 5.8800003149306
100	966361 16706 1108 328488 1.276580595869 59.976582471419 588 4 4 2352 9408
99	983067 16136 1052 328438 1.262218595869 59.962220471408 588 4 4 2352 9408
98	999203 858 5172 328666 2 60 59 0 0 0 0
97	1000061 1213 5172 328666 2 60 59 0.023297 0.02625 1.545797 0.040508375209
96	1001274 858 5172 328666 2 60 59 4 4 236 944
117	1002132 19944 237 328179 1.11 59.91 589 -1.373769608708 1.2291181138156 0.25514620983605 239.86306755102
116	1022076 19996 237 328179 1.11 59.91 589 -1.24440646808 1.135230300919 -1.9998209645422 182.64964678292
115	1042072 13259 237 328179 1.11 59.91 589 36.55 36.55 21527.95 786846.5725
114	1055331 19075 237 328179 1.11 59.91 589 83.44885559082 1740.0127255516 541226.21653011 631399362.70041
113	1074406 19100 237 328179 1.11 59.91 589 26.978842153951 30.720654235229 16593.343133313 467932.08949831
111	1093506 20154 237 328179 1.11 59.91 589 -0.61968140373628 0.55633995857036 -30.818529569222 49.610011713325
110	1113660 19105 237 328179 1.11 59.91 589 15.469271838269 18.891588761274 9583.8406265242 156374.70856271
112	1132765 10903 237 328179 1.11 59.91 589 5 5 2945 14725
124	1143668 24286 1244 328624 1.297504824916 59.997506671714 588 0.099999422565 0.10001267857 58.800001526478 5.880000309185
123	1167954 24269 1058 328444 1.262218672219 59.962220537492 588 0.099999422744 0.100012655691 58.800001544953 5.8800003128774
122	1192223 16714 1244 328624 1.297504824916 59.997506671714 588 5 5 2940 14700
121	1208937 16697 1058 328444 1.262218672219 59.962220537492 588 5 5 2940 14700
120	1225634 917 5173 328667 2 60 59 0 0 0 0
119	1226551 1272 5173 328667 2 60 59 0.023297 0.02625 1.545797 0.040508375209
118	1227823 917 5173 328667 2 60 59 5 5 295 1475
139	1228740 19955 238 328180 1.11 59.91 589 -1.2826712426333 1.2895438895124 -2.3201015551641 208.29017229218
138	1248695 20000 238 328180 1.11 59.91 589 -1.1695058721372 1.2076072870943 -3.2902599113775 162.93903615795
137	1268695 13259 238 328180 1.11 59.91 589 36.55 36.55 21527.95 786846.5725
136	1281954 19097 238 328180 1.11 59.91 589 60.559966278076 1720.2919319158 529272.72708606 609976986.20382
135	1301051 19078 238 328180 1.11 59.91 589 27.047737133651 31.17622493048 16624.980868367 469797.30253185
133	1320129 20189 238 328180 1.11 59.91 589 -0.57472467484333 0.52760888447105 -31.617736844557 41.194430955863
132	1340318 19076 238 328180 1.11 59.91 589 15.505873170064 18.888889312744 9598.1221987513 156858.09871172
134	1359394 10903 238 328180 1.11 59.91 589 6 6 3534 21204
146	1370297 24285 970 328350 1.247595985076 59.947597966257 588 0.099999422043 0.100012676248 58.800001660861 5.8800003360608
145	1394582 24284 1064 328450 1.262218748568 59.962220603295 588 0.099999422712 0.10001265566 58.800001534407 5.8800003107682
144	1418866 16711 970 328350 1.247595985076 59.947597966257 588 6 6 3528 21168
143	1435577 16707 1064 328450 1.262218748568 59.962220603295 588 6 6 3528 21168
142	1452284 917 5174 328668 2 60 59 0 0 0 0
141	1453201 1272 5174 328668 2 60 59 0.023297 0.02625 1.545797 0.040508375209
140	1454473 917 5174 328668 2 60 59 6 6 354 2124
161	1455390 19980 239 328181 1.11 59.91 589 -1.196188420371 1.3161489354409 -3.5408667990652 186.20935508504
160	1475370 20019 239 328181 1.11 59.91 589 -1.0978496742759 1.2473362754971 -3.1489259169973 149.23796962059
159	1495389 13259 239 328181 1.11 59.91 589 36.55 36.55 21527.95 786846.5725
158	1508648 19074 239 328181 1.11 59.91 589 37.671077919006 1700.5727919723 517304.21903582 589029172.64391
157	1527722 19092 239 328181 1.11 59.91 589 27.110771104636 31.581305164696 16656.685328073 471681.38346931
155	1546814 20190 239 328181 1.11 59.91 589 -0.54286370976067 0.49995458347587 -31.671557106664 34.786552430542
154	1567004 19087 239 328181 1.11 59.91 589 15.53926196807 18.88888835907 9613.1421394342 157369.2176395
156	1586091 10903 239 328181 1.11 59.91 589 7 7 4123 28861
168	1596994 24281 832 328212 1.212137756029 59.912126768902 588 0.099999422107 0.100012629103 58.799988692553 5.8799977422412
167	1621275 24286 1070 328456 1.262218824917 59.962220669069 588 0.09999942272 0.100012655642 58.800001523832 5.8800003086532
166	1645561 16696 832 328212 1.212137756029 59.912126768902 588 7 7 4116 28812
165	1662257 16718 1070 328456 1.262218824917 59.962220669069 588 7 7 4116 28812
164	1678975 917 5175 328669 2 60 59 0 0 0 0
163	1679892 1272 5175 328669 2 60 59 0.023297 0.02625 1.545797 0.040508375209
162	1681164 917 5175 328669 2 60 59 7 7 413 2891
