file 976836 1501602311                                          
version 2
run SinusoidalJammingDetail-457-20170801-17:44:52-70520
attr CACCSpacing 5
attr attackAcc -30
attr attackPos 7
attr attackSpeed 150
attr attackStart 30.5
attr attacker 1
attr beaconInterval 0.1
attr configname SinusoidalJammingDetail
attr controller 1
attr datetime 20170801-17:44:52
attr experiment SinusoidalJammingDetail
attr fakeAcc "(1 == 4)"
attr fakePos "(1 == 2)"
attr fakeSpeed "(1 == 3)"
attr inifile omnetpp_457.ini
attr iterationvars "$leaderSpeed=120, $controller=1, $CACCSpacing=5, $sController=\"CACC\", $attacker=1, $attackStart=30.5, $attackSpeed=150, $attackPos=7, $attackAcc=-30, $0=5, $1=0, $nCars=8, $platoonSize=8, $nLanes=1, $beaconInterval=0.1, $priority=2, $packetSize=200, $ploegH=0.5, $leaderHeadway=1.2, $fakeSpeed=(1 == 3), $fakeAcc=(1 == 4), $fakePos=(1 == 2)"
attr iterationvarsf leaderSpeed=120,controller=1,CACCSpacing=5,sController=CACC,attacker=1,attackStart=30.5,attackSpeed=150,attackPos=7,attackAcc=-30,5,0,nCars=8,platoonSize=8,nLanes=1,beaconInterval=0.1,priority=2,packetSize=200,ploegH=0.5,leaderHeadway=1.2,fakeSpeed=(1_==_3),fakeAcc=(1_==_4),fakePos=(1_==_2)-
attr leaderHeadway 1.2
attr leaderSpeed 120
attr measurement "$leaderSpeed=120, $controller=1, $CACCSpacing=5, $sController=\"CACC\", $attacker=1, $attackStart=30.5, $attackSpeed=150, $attackPos=7, $attackAcc=-30, $0=5, $1=0, $nCars=8, $platoonSize=8, $nLanes=1, $beaconInterval=0.1, $priority=2, $packetSize=200, $ploegH=0.5, $leaderHeadway=1.2, $fakeSpeed=(1 == 3), $fakeAcc=(1 == 4), $fakePos=(1 == 2)"
attr nCars 8
attr nLanes 1
attr network scenario
attr packetSize 200
attr platoonSize 8
attr ploegH 0.5
attr priority 2
attr processid 70520
attr repetition 2
attr replication #2
attr resultdir results
attr runnumber 457
attr sController "\"CACC\""
attr seedset 2
param **.coreDebug false
param **.debug false
param **.headway 0.1s
param **.numberOfCars 8
param **.numberOfCarsPerPlatoon 8
param **.numberOfLanes 1
param **.numericController 1
param **.traffic.nCars 8
param **.traffic.nLanes 1
param **.traffic.platoonInsertDistance 5m
param **.traffic.platoonInsertHeadway 0s
param **.traffic.platoonInsertSpeed 120kmph
param **.traffic.platoonInsertTime "1 s"
param **.traffic.platoonLeaderHeadway 1.2s
param **.traffic.platoonSize 8
param **.traffic.platooningVType "\"vtypeauto\""
param **.traffic_type "\"PlatoonsTrafficManager\""
param *.**.nic.mac1609_4.bitrate 6Mbps
param *.**.nic.mac1609_4.txPower 100mW
param *.**.nic.mac1609_4.useServiceChannel false
param *.**.nic.phy80211p.analogueModels "xmldoc(\"config.xml\")"
param *.**.nic.phy80211p.decider "xmldoc(\"config.xml\")"
param *.**.nic.phy80211p.maxTXPower 100mW
param *.**.nic.phy80211p.sensitivity -94dBm
param *.**.nic.phy80211p.thermalNoise -95dBm
param *.**.nic.phy80211p.usePropagationDelay true
param *.**.nic.phy80211p.useThermalNoise true
param *.annotations.draw false
param *.connectionManager.alpha 2.0
param *.connectionManager.carrierFrequency "5.890e9 Hz"
param *.connectionManager.pMax 100mW
param *.connectionManager.sat -94dBm
param *.connectionManager.sendDirect true
param *.manager.autoShutdown true
param *.manager.commandLine "\"sumo --remote-port $port --seed $seed --configuration-file $configFile\""
param *.manager.configFile "\"./sumocfg/freeway.sumo.cfg\""
param *.manager.host "\"localhost\""
param *.manager.margin 25
param *.manager.moduleDisplayString "\"\""
param *.manager.moduleName "\"node\""
param *.manager.moduleType "\"Car\""
param *.manager.updateInterval 0.01s
param *.node[*].appl.attackStart 30.5s
param *.node[*].appl.attackerType 1
param *.node[*].appl.simulationDuration "60 s"
param *.node[*].appl_type "\"SimplePlatooningApp\""
param *.node[*].helper.nCars 8
param *.node[*].helper.nLanes 1
param *.node[*].helper.platoonSize 8
param *.node[*].helper_type "\"PositionHelper\""
param *.node[*].mobility.x 0
param *.node[*].mobility.y 0
param *.node[*].mobility.z 1.895
param *.node[*].prot.attackStart 30.5s
param *.node[*].prot.attackerType 1
param *.node[*].prot.attackingNode 3
param *.node[*].prot.beaconingInterval 0.1s
param *.node[*].prot.fakeAcc "(1 == 4)"
param *.node[*].prot.fakePos "(1 == 2)"
param *.node[*].prot.fakeSpeed "(1 == 3)"
param *.node[*].prot.maliciousAcc "-30 mpss"
param *.node[*].prot.maliciousSpeed 150kmph
param *.node[*].prot.packetSize 200
param *.node[*].prot.priority 2
param *.node[*].prot.shiftX "7 m"
param *.node[*].prot.useControllerAcceleration true
param *.node[*].protocol_type "\"SimplePlatooningBeaconing\""
param *.node[*].scenario.accHeadway 0.1s
param *.node[*].scenario.caccC1 0.5
param *.node[*].scenario.caccOmegaN "0.2 Hz"
param *.node[*].scenario.caccSpacing 5m
param *.node[*].scenario.caccXi 1
param *.node[*].scenario.controller "\"CACC\""
param *.node[*].scenario.engineTau "0.5 s"
param *.node[*].scenario.leaderHeadway 1.2s
param *.node[*].scenario.leaderOscillationFrequency "0.2 Hz"
param *.node[*].scenario.leaderSpeed 120kmph
param *.node[*].scenario.oscillationAmplitude "10 kmph"
param *.node[*].scenario.ploegH 0.5s
param *.node[*].scenario.ploegKd 0.7
param *.node[*].scenario.ploegKp 0.2
param *.node[*].scenario.startOscillating "5 s"
param *.node[*].scenario.useRealisticEngine false
param *.node[*].scenario_type "\"SinusoidalScenario\""
param *.node[*].unicast.packetLossRate 0
param *.obstacles.debug false
param *.playgroundSizeX 65000m
param *.playgroundSizeY 25000m
param *.playgroundSizeZ 50m
param *.world.use2D false
param *.world.useTorus false

vector 0  scenario.node[0].appl  distance  ETV
vector 1  scenario.node[0].appl  relativeSpeed  ETV
vector 2  scenario.node[0].appl  nodeId  ETV
vector 6  scenario.node[0].appl  acceleration  ETV
vector 7  scenario.node[0].appl  controllerAcceleration  ETV
vector 3  scenario.node[0].appl  speed  ETV
vector 4  scenario.node[0].appl  posx  ETV
vector 5  scenario.node[0].appl  posy  ETV
vector 22  scenario.node[1].appl  distance  ETV
vector 23  scenario.node[1].appl  relativeSpeed  ETV
vector 24  scenario.node[1].appl  nodeId  ETV
vector 28  scenario.node[1].appl  acceleration  ETV
vector 29  scenario.node[1].appl  controllerAcceleration  ETV
vector 25  scenario.node[1].appl  speed  ETV
vector 26  scenario.node[1].appl  posx  ETV
vector 27  scenario.node[1].appl  posy  ETV
vector 44  scenario.node[2].appl  distance  ETV
vector 45  scenario.node[2].appl  relativeSpeed  ETV
vector 46  scenario.node[2].appl  nodeId  ETV
vector 50  scenario.node[2].appl  acceleration  ETV
vector 51  scenario.node[2].appl  controllerAcceleration  ETV
vector 47  scenario.node[2].appl  speed  ETV
vector 48  scenario.node[2].appl  posx  ETV
vector 49  scenario.node[2].appl  posy  ETV
vector 66  scenario.node[3].appl  distance  ETV
vector 67  scenario.node[3].appl  relativeSpeed  ETV
vector 68  scenario.node[3].appl  nodeId  ETV
vector 72  scenario.node[3].appl  acceleration  ETV
vector 73  scenario.node[3].appl  controllerAcceleration  ETV
vector 69  scenario.node[3].appl  speed  ETV
vector 70  scenario.node[3].appl  posx  ETV
vector 71  scenario.node[3].appl  posy  ETV
vector 88  scenario.node[4].appl  distance  ETV
vector 89  scenario.node[4].appl  relativeSpeed  ETV
vector 90  scenario.node[4].appl  nodeId  ETV
vector 94  scenario.node[4].appl  acceleration  ETV
vector 95  scenario.node[4].appl  controllerAcceleration  ETV
vector 91  scenario.node[4].appl  speed  ETV
vector 92  scenario.node[4].appl  posx  ETV
vector 93  scenario.node[4].appl  posy  ETV
vector 110  scenario.node[5].appl  distance  ETV
vector 111  scenario.node[5].appl  relativeSpeed  ETV
vector 112  scenario.node[5].appl  nodeId  ETV
vector 116  scenario.node[5].appl  acceleration  ETV
vector 117  scenario.node[5].appl  controllerAcceleration  ETV
vector 113  scenario.node[5].appl  speed  ETV
vector 114  scenario.node[5].appl  posx  ETV
vector 115  scenario.node[5].appl  posy  ETV
vector 132  scenario.node[6].appl  distance  ETV
vector 133  scenario.node[6].appl  relativeSpeed  ETV
vector 134  scenario.node[6].appl  nodeId  ETV
vector 138  scenario.node[6].appl  acceleration  ETV
vector 139  scenario.node[6].appl  controllerAcceleration  ETV
vector 135  scenario.node[6].appl  speed  ETV
vector 136  scenario.node[6].appl  posx  ETV
vector 137  scenario.node[6].appl  posy  ETV
vector 154  scenario.node[7].appl  distance  ETV
vector 155  scenario.node[7].appl  relativeSpeed  ETV
vector 156  scenario.node[7].appl  nodeId  ETV
vector 160  scenario.node[7].appl  acceleration  ETV
vector 161  scenario.node[7].appl  controllerAcceleration  ETV
vector 157  scenario.node[7].appl  speed  ETV
vector 158  scenario.node[7].appl  posx  ETV
vector 159  scenario.node[7].appl  posy  ETV
vector 168  scenario.node[7].prot  frontDelay  ETV
vector 166  scenario.node[7].prot  frontDelayId  ETV
vector 146  scenario.node[6].prot  frontDelay  ETV
vector 144  scenario.node[6].prot  frontDelayId  ETV
vector 35  scenario.node[1].prot  leaderDelay  ETV
vector 33  scenario.node[1].prot  leaderDelayId  ETV
vector 36  scenario.node[1].prot  frontDelay  ETV
vector 34  scenario.node[1].prot  frontDelayId  ETV
vector 57  scenario.node[2].prot  leaderDelay  ETV
vector 55  scenario.node[2].prot  leaderDelayId  ETV
vector 79  scenario.node[3].prot  leaderDelay  ETV
vector 77  scenario.node[3].prot  leaderDelayId  ETV
vector 101  scenario.node[4].prot  leaderDelay  ETV
vector 99  scenario.node[4].prot  leaderDelayId  ETV
vector 123  scenario.node[5].prot  leaderDelay  ETV
vector 121  scenario.node[5].prot  leaderDelayId  ETV
vector 145  scenario.node[6].prot  leaderDelay  ETV
vector 143  scenario.node[6].prot  leaderDelayId  ETV
vector 167  scenario.node[7].prot  leaderDelay  ETV
vector 165  scenario.node[7].prot  leaderDelayId  ETV
vector 102  scenario.node[4].prot  frontDelay  ETV
vector 100  scenario.node[4].prot  frontDelayId  ETV
vector 80  scenario.node[3].prot  frontDelay  ETV
vector 78  scenario.node[3].prot  frontDelayId  ETV
vector 124  scenario.node[5].prot  frontDelay  ETV
vector 122  scenario.node[5].prot  frontDelayId  ETV
vector 58  scenario.node[2].prot  frontDelay  ETV
vector 56  scenario.node[2].prot  frontDelayId  ETV
vector 8  scenario.node[0].prot  nodeId  ETV
vector 9  scenario.node[0].prot  busyTime  ETV
vector 10  scenario.node[0].prot  collisions  ETV
vector 30  scenario.node[1].prot  nodeId  ETV
vector 31  scenario.node[1].prot  busyTime  ETV
vector 32  scenario.node[1].prot  collisions  ETV
vector 52  scenario.node[2].prot  nodeId  ETV
vector 53  scenario.node[2].prot  busyTime  ETV
vector 54  scenario.node[2].prot  collisions  ETV
vector 74  scenario.node[3].prot  nodeId  ETV
vector 75  scenario.node[3].prot  busyTime  ETV
vector 76  scenario.node[3].prot  collisions  ETV
vector 96  scenario.node[4].prot  nodeId  ETV
vector 97  scenario.node[4].prot  busyTime  ETV
vector 98  scenario.node[4].prot  collisions  ETV
vector 118  scenario.node[5].prot  nodeId  ETV
vector 119  scenario.node[5].prot  busyTime  ETV
vector 120  scenario.node[5].prot  collisions  ETV
vector 140  scenario.node[6].prot  nodeId  ETV
vector 141  scenario.node[6].prot  busyTime  ETV
vector 142  scenario.node[6].prot  collisions  ETV
vector 162  scenario.node[7].prot  nodeId  ETV
vector 163  scenario.node[7].prot  busyTime  ETV
vector 164  scenario.node[7].prot  collisions  ETV
7	11244 8199 232 191517 1.11 35.41 344 -1.5 1.5 -7.1779559958661 548.35883058508
6	19443 10799 232 191517 1.11 35.41 344 -1.4722746795918 1.4513407705138 -11.584955757868 367.11480936847
5	30242 6936 232 191517 1.11 35.41 344 36.55 36.55 12573.2 459550.46
4	37178 10340 232 191517 1.11 35.41 344 101.22663612406 1248.2466005361 232586.42921506 195201521.64875
3	47518 10339 232 191517 1.11 35.41 344 32.043531245463 35.298048086563 11503.122438422 384914.33525795
1	57857 5560 232 191517 1.11 35.41 344 0 0 0 0
0	63417 5904 232 191517 1.11 35.41 344 -1 -1 -344 344
2	69321 5560 232 191517 1.11 35.41 344 0 0 0 0
10	74881 483 5168 189212 2 35 34 0 0 0 0
9	75364 654 5168 189212 2 35 34 0.023297 0.02625 0.889547 0.023281812709
8	76018 449 5168 189212 2 35 34 0 0 0 0
51	76467 11028 234 191519 1.11 35.41 344 -1.4963007072852 1.4967154498574 28.602410179326 480.30107887507
50	87495 11076 234 191519 1.11 35.41 344 -1.4778825450577 1.4525906612675 27.598313277193 341.87595128657
49	98571 7280 234 191519 1.11 35.41 344 36.55 36.55 12573.2 459550.46
48	105851 10665 234 191519 1.11 35.41 344 83.22663230896 1236.078471643 226438.45708424 187053932.5774
47	116516 10675 234 191519 1.11 35.41 344 32.042284549274 36.082748045792 11562.815978396 388999.40582537
45	127191 11717 234 191519 1.11 35.41 344 -0.56361011816018 0.017598500006571 -10.317355501113 3.8125728001593
44	138908 10687 234 191519 1.11 35.41 344 4.0212639513372 5.04588948388 1708.7580774198 8494.9639404167
46	149595 5904 234 191519 1.11 35.41 344 2 2 688 1376
58	155499 13682 1312 191485 1.302609200833 35.402606946261 342 0.099998600228 0.10001166295 34.200009405886 3.4200018866205
57	169181 13662 1040 191212 1.262216960667 35.362214721785 342 0.099998601175 0.10001166314 34.199996421576 3.4199992896251
56	182843 9267 1312 191485 1.302609200833 35.402606946261 342 2 2 684 1368
55	192110 9256 1040 191212 1.262216960667 35.362214721785 342 2 2 684 1368
54	201366 483 5170 189214 2 35 34 0 0 0 0
53	201849 688 5170 189214 2 35 34 0.023297 0.02625 0.889547 0.023281812709
52	202537 483 5170 189214 2 35 34 2 2 68 136
73	203020 11049 235 191520 1.11 35.41 344 -1.5144504109894 1.5154441955027 33.332897820857 496.12997998562
72	214069 11096 235 191520 1.11 35.41 344 -1.4663368934229 1.4406082169536 31.094367699878 341.14700316235
71	225165 7280 235 191520 1.11 35.41 344 36.55 36.55 12573.2 459550.46
70	232445 10687 235 191520 1.11 35.41 344 74.22663230896 1227.6274677864 223347.91883996 183021238.20434
69	243132 10678 235 191520 1.11 35.41 344 32.053895785605 36.425568854923 11568.426891385 389396.08344063
67	253810 11787 235 191520 1.11 35.41 344 -0.34530089461391 0.014948768234788 -5.886896121834 1.2863836624282
66	265597 10665 235 191520 1.11 35.41 344 4.4578602727565 5.0406529512611 1714.6504625378 8548.6692199515
68	276262 5904 235 191520 1.11 35.41 344 3 3 1032 3096
80	282166 13661 1176 191348 1.287873050729 35.38788380649 342 0.099998600842 0.10001166287 34.200009416219 3.4200018886871
79	295827 13669 1046 191218 1.262216990687 35.362214750031 342 0.099998601064 0.100011663143 34.199996419802 3.4199992892703
78	309496 9247 1176 191348 1.287873050729 35.38788380649 342 3 3 1026 3078
77	318743 9246 1046 191218 1.262216990687 35.362214750031 342 3 3 1026 3078
76	327989 483 5171 189215 2 35 34 0 0 0 0
75	328472 688 5171 189215 2 35 34 0.023297 0.02625 0.889547 0.023281812709
74	329160 483 5171 189215 2 35 34 3 3 102 306
95	329643 11051 236 191521 1.11 35.41 344 -1.5000260501812 1.5032357412066 35.793976191464 489.71204413526
94	340694 11086 236 191521 1.11 35.41 344 -1.4562064120234 1.4309616937226 33.163126169163 339.47587074744
93	351780 7280 236 191521 1.11 35.41 344 36.55 36.55 12573.2 459550.46
92	359060 10680 236 191521 1.11 35.41 344 65.22663230896 1218.9286036599 220254.19270363 179036374.95445
91	369740 10678 236 191521 1.11 35.41 344 32.064224258544 36.627932071624 11571.509831109 389614.05321999
89	380418 11772 236 191521 1.11 35.41 344 -0.2061181547834 0.014322371938697 -3.3938834005464 0.43913435995895
88	392190 10683 236 191521 1.11 35.41 344 4.7029113908495 5.0268461802697 1717.7877951246 8578.5089746756
90	402873 5904 236 191521 1.11 35.41 344 4 4 1376 5504
102	408777 14000 1108 191280 1.276579020708 35.376589779074 342 0.099998600998 0.100011662875 34.200009418824 3.4200018892081
101	422777 14001 1052 191224 1.262217020708 35.362214779081 342 0.099998600999 0.100011663146 34.199996418831 3.4199992890761
100	436778 9590 1108 191280 1.276579020708 35.376589779074 342 4 4 1368 5472
99	446368 9252 1052 191224 1.262217020708 35.362214779081 342 4 4 1368 5472
98	455620 483 5172 189216 2 35 34 0 0 0 0
97	456103 688 5172 189216 2 35 34 0.023297 0.02625 0.889547 0.023281812709
96	456791 483 5172 189216 2 35 34 4 4 136 544
117	457274 11413 237 191522 1.11 35.41 344 -1.5085423845031 1.5107019439104 37.620089358379 499.84669811398
116	468687 11433 237 191522 1.11 35.41 344 -1.4566506565281 1.4330842495582 34.444429626605 343.46606291976
115	480120 7624 237 191522 1.11 35.41 344 36.55 36.55 12573.2 459550.46
114	487744 11024 237 191522 1.11 35.41 344 56.226634216309 1210.1426391949 217159.62341307 175104353.31368
113	498768 11024 237 191522 1.11 35.41 344 32.059272047036 36.755005343824 11573.695016455 389771.8808154
111	509792 11992 237 191522 1.11 35.41 344 -0.13171253357459 0.032962840097063 -2.5168166080253 0.32925937113734
110	521784 11020 237 191522 1.11 35.41 344 4.7885059304288 5.0245320404246 1718.6129942652 8586.5103093289
112	532804 6248 237 191522 1.11 35.41 344 5 5 1720 8600
124	539052 13994 1244 191416 1.297503110771 35.397513864841 342 0.099998604801 0.100011662942 34.200009414528 3.4200018883486
123	553046 14005 1058 191230 1.262217050729 35.362214808409 342 0.099998600958 0.100011663147 34.199996418138 3.4199992889375
122	567051 9592 1244 191416 1.297503110771 35.397513864841 342 5 5 1710 8550
121	576643 9590 1058 191230 1.262217050729 35.362214808409 342 5 5 1710 8550
120	586233 517 5173 189217 2 35 34 0 0 0 0
119	586750 722 5173 189217 2 35 34 0.023297 0.02625 0.889547 0.023281812709
118	587472 517 5173 189217 2 35 34 5 5 170 850
139	587989 11390 238 191523 1.11 35.41 344 -1.4954220879336 1.4958357950385 37.96337418784 490.8186608706
138	599379 11451 238 191523 1.11 35.41 344 -1.460422089297 1.4357065160382 35.197167760695 345.96197343026
137	610830 7624 238 191523 1.11 35.41 344 36.55 36.55 12573.2 459550.46
136	618454 11031 238 191523 1.11 35.41 344 47.226634216309 1201.2027299161 214062.55651459 171222440.52476
135	629485 11026 238 191523 1.11 35.41 344 32.058008623547 36.826751357089 11574.321695752 389819.21639826
133	640511 12260 238 191523 1.11 35.41 344 -0.076916651253441 0.01115624951931 -0.97112359327512 0.064400136638726
132	652771 11018 238 191523 1.11 35.41 344 4.9413441990343 5.0279108584986 1721.0794320681 8610.8730962314
134	663789 6248 238 191523 1.11 35.41 344 6 6 2064 12384
146	670037 14051 970 191699 1.247594780542 35.447591182111 343 0.099998599913 0.100011663076 34.299995062027 3.4299990177176
145	684088 14002 1064 191236 1.26221708075 35.362214838241 342 0.099998600935 0.100011663144 34.199996417949 3.4199992888997
144	698090 9621 970 191699 1.247594780542 35.447591182111 343 6 6 2058 12348
143	707711 9603 1064 191236 1.26221708075 35.362214838241 342 6 6 2052 12312
142	717314 517 5174 189218 2 35 34 0 0 0 0
141	717831 722 5174 189218 2 35 34 0.023297 0.02625 0.889547 0.023281812709
140	718553 517 5174 189218 2 35 34 6 6 204 1224
161	719070 11385 239 191524 1.11 35.41 344 -1.4854568304655 1.4867112486779 38.068522752631 479.0356359868
160	730455 11441 239 191524 1.11 35.41 344 -1.4553421819997 1.4301187294706 35.54356946042 344.07443104926
159	741896 7624 239 191524 1.11 35.41 344 36.55 36.55 12573.2 459550.46
158	749520 11026 239 191524 1.11 35.41 344 38.226633262634 1192.2295758382 210965.50775968 167396221.85602
157	760546 11030 239 191524 1.11 35.41 344 32.064173822346 36.862144567274 11574.602707911 389838.25733892
155	771576 12298 239 191524 1.11 35.41 344 -0.04095986457483 0.0095544714910503 -0.63298383635929 0.026717021201815
154	783874 11024 239 191524 1.11 35.41 344 4.9738619421403 5.0149087721015 1721.0543751546 8610.5584866595
156	794898 6248 239 191524 1.11 35.41 344 7 7 2408 16856
168	801146 14050 832 191561 1.212136690479 35.41213309255 343 0.099998599972 0.100011663088 34.299995062529 3.4299990178173
167	815196 14005 1070 191242 1.26221711077 35.362214868178 342 0.099998600924 0.100011663145 34.199996417866 3.4199992888831
166	829201 9624 832 191561 1.212136690479 35.41213309255 343 7 7 2401 16807
165	838825 9590 1070 191242 1.26221711077 35.362214868178 342 7 7 2394 16758
164	848415 517 5175 189219 2 35 34 0 0 0 0
163	848932 722 5175 189219 2 35 34 0.023297 0.02625 0.889547 0.023281812709
162	849654 517 5175 189219 2 35 34 7 7 238 1666
22	850171 10698 233 191733 1.11 35.46 345 0 5.4204441686006 1688.4079241949 8408.6956563205
23	860869 11614 233 191733 1.11 35.46 345 -3.4487178035998 0.39205066995069 -52.823107706286 158.231255313
24	872483 5922 233 191733 1.11 35.46 345 1 1 345 345
25	878405 10719 233 191733 1.11 35.46 345 32.036051007904 35.523479619407 11588.241170917 389549.62792636
26	889124 10709 233 191733 1.11 35.46 345 92.22663230896 1245.8646191568 230768.87781507 192679970.53815
27	899833 7302 233 191733 1.11 35.46 345 36.55 36.55 12609.75 460886.3625
28	907135 11143 233 191733 1.11 35.46 345 -1.4872877331541 1.463189247746 21.972250820671 337.98261173887
29	918278 11098 233 191733 1.11 35.46 345 -1.5233934320828 1.524149182643 22.363703314975 492.28267819791
30	929376 483 5169 189213 2 35 34 1 1 34 34
31	929859 688 5169 189213 2 35 34 0.023296 0.02625 0.889546 0.023281766116
32	930547 483 5169 189213 2 35 34 0 0 0 0
33	931030 9248 1034 191206 1.262216930646 35.362214694973 342 1 1 342 342
34	940278 9248 1034 191206 1.262216930646 35.362214694973 342 1 1 342 342
35	949526 13655 1034 191206 1.262216930646 35.362214694973 342 0.099998601358 0.10001166314 34.199996424785 3.4199992902669
36	963181 13655 1034 191206 1.262216930646 35.362214694973 342 0.099998601358 0.10001166314 34.199996424785 3.4199992902669
