file 1412218 1501605369                                         
version 2
run SinusoidalJammingDetail-660-20170801-18:35:42-68666
attr CACCSpacing 9
attr attackAcc -30
attr attackPos 7
attr attackSpeed 150
attr attackStart 30
attr attacker 1
attr beaconInterval 0.1
attr configname SinusoidalJammingDetail
attr controller 1
attr datetime 20170801-18:35:42
attr experiment SinusoidalJammingDetail
attr fakeAcc "(1 == 4)"
attr fakePos "(1 == 2)"
attr fakeSpeed "(1 == 3)"
attr inifile omnetpp_660.ini
attr iterationvars "$leaderSpeed=150, $controller=1, $CACCSpacing=9, $sController=\"CACC\", $attacker=1, $attackStart=30, $attackSpeed=150, $attackPos=7, $attackAcc=-30, $0=9, $1=0, $nCars=8, $platoonSize=8, $nLanes=1, $beaconInterval=0.1, $priority=2, $packetSize=200, $ploegH=0.5, $leaderHeadway=1.2, $fakeSpeed=(1 == 3), $fakeAcc=(1 == 4), $fakePos=(1 == 2)"
attr iterationvarsf leaderSpeed=150,controller=1,CACCSpacing=9,sController=CACC,attacker=1,attackStart=30,attackSpeed=150,attackPos=7,attackAcc=-30,9,0,nCars=8,platoonSize=8,nLanes=1,beaconInterval=0.1,priority=2,packetSize=200,ploegH=0.5,leaderHeadway=1.2,fakeSpeed=(1_==_3),fakeAcc=(1_==_4),fakePos=(1_==_2)-
attr leaderHeadway 1.2
attr leaderSpeed 150
attr measurement "$leaderSpeed=150, $controller=1, $CACCSpacing=9, $sController=\"CACC\", $attacker=1, $attackStart=30, $attackSpeed=150, $attackPos=7, $attackAcc=-30, $0=9, $1=0, $nCars=8, $platoonSize=8, $nLanes=1, $beaconInterval=0.1, $priority=2, $packetSize=200, $ploegH=0.5, $leaderHeadway=1.2, $fakeSpeed=(1 == 3), $fakeAcc=(1 == 4), $fakePos=(1 == 2)"
attr nCars 8
attr nLanes 1
attr network scenario
attr packetSize 200
attr platoonSize 8
attr ploegH 0.5
attr priority 2
attr processid 68666
attr repetition 0
attr replication #0
attr resultdir results
attr runnumber 660
attr sController "\"CACC\""
attr seedset 0
param **.coreDebug false
param **.debug false
param **.headway 0.1s
param **.numberOfCars 8
param **.numberOfCarsPerPlatoon 8
param **.numberOfLanes 1
param **.numericController 1
param **.traffic.nCars 8
param **.traffic.nLanes 1
param **.traffic.platoonInsertDistance 9m
param **.traffic.platoonInsertHeadway 0s
param **.traffic.platoonInsertSpeed 150kmph
param **.traffic.platoonInsertTime "1 s"
param **.traffic.platoonLeaderHeadway 1.2s
param **.traffic.platoonSize 8
param **.traffic.platooningVType "\"vtypeauto\""
param **.traffic_type "\"PlatoonsTrafficManager\""
param *.**.nic.mac1609_4.bitrate 6Mbps
param *.**.nic.mac1609_4.txPower 100mW
param *.**.nic.mac1609_4.useServiceChannel false
param *.**.nic.phy80211p.analogueModels "xmldoc(\"config.xml\")"
param *.**.nic.phy80211p.decider "xmldoc(\"config.xml\")"
param *.**.nic.phy80211p.maxTXPower 100mW
param *.**.nic.phy80211p.sensitivity -94dBm
param *.**.nic.phy80211p.thermalNoise -95dBm
param *.**.nic.phy80211p.usePropagationDelay true
param *.**.nic.phy80211p.useThermalNoise true
param *.annotations.draw false
param *.connectionManager.alpha 2.0
param *.connectionManager.carrierFrequency "5.890e9 Hz"
param *.connectionManager.pMax 100mW
param *.connectionManager.sat -94dBm
param *.connectionManager.sendDirect true
param *.manager.autoShutdown true
param *.manager.commandLine "\"sumo --remote-port $port --seed $seed --configuration-file $configFile\""
param *.manager.configFile "\"./sumocfg/freeway.sumo.cfg\""
param *.manager.host "\"localhost\""
param *.manager.margin 25
param *.manager.moduleDisplayString "\"\""
param *.manager.moduleName "\"node\""
param *.manager.moduleType "\"Car\""
param *.manager.updateInterval 0.01s
param *.node[*].appl.attackStart 30s
param *.node[*].appl.attackerType 1
param *.node[*].appl.simulationDuration "60 s"
param *.node[*].appl_type "\"SimplePlatooningApp\""
param *.node[*].helper.nCars 8
param *.node[*].helper.nLanes 1
param *.node[*].helper.platoonSize 8
param *.node[*].helper_type "\"PositionHelper\""
param *.node[*].mobility.x 0
param *.node[*].mobility.y 0
param *.node[*].mobility.z 1.895
param *.node[*].prot.attackStart 30s
param *.node[*].prot.attackerType 1
param *.node[*].prot.attackingNode 3
param *.node[*].prot.beaconingInterval 0.1s
param *.node[*].prot.fakeAcc "(1 == 4)"
param *.node[*].prot.fakePos "(1 == 2)"
param *.node[*].prot.fakeSpeed "(1 == 3)"
param *.node[*].prot.maliciousAcc "-30 mpss"
param *.node[*].prot.maliciousSpeed 150kmph
param *.node[*].prot.packetSize 200
param *.node[*].prot.priority 2
param *.node[*].prot.shiftX "7 m"
param *.node[*].prot.useControllerAcceleration true
param *.node[*].protocol_type "\"SimplePlatooningBeaconing\""
param *.node[*].scenario.accHeadway 0.1s
param *.node[*].scenario.caccC1 0.5
param *.node[*].scenario.caccOmegaN "0.2 Hz"
param *.node[*].scenario.caccSpacing 9m
param *.node[*].scenario.caccXi 1
param *.node[*].scenario.controller "\"CACC\""
param *.node[*].scenario.engineTau "0.5 s"
param *.node[*].scenario.leaderHeadway 1.2s
param *.node[*].scenario.leaderOscillationFrequency "0.2 Hz"
param *.node[*].scenario.leaderSpeed 150kmph
param *.node[*].scenario.oscillationAmplitude "10 kmph"
param *.node[*].scenario.ploegH 0.5s
param *.node[*].scenario.ploegKd 0.7
param *.node[*].scenario.ploegKp 0.2
param *.node[*].scenario.startOscillating "5 s"
param *.node[*].scenario.useRealisticEngine false
param *.node[*].scenario_type "\"SinusoidalScenario\""
param *.node[*].unicast.packetLossRate 0
param *.obstacles.debug false
param *.playgroundSizeX 65000m
param *.playgroundSizeY 25000m
param *.playgroundSizeZ 50m
param *.world.use2D false
param *.world.useTorus false

vector 0  scenario.node[0].appl  distance  ETV
vector 1  scenario.node[0].appl  relativeSpeed  ETV
vector 2  scenario.node[0].appl  nodeId  ETV
vector 6  scenario.node[0].appl  acceleration  ETV
vector 7  scenario.node[0].appl  controllerAcceleration  ETV
vector 3  scenario.node[0].appl  speed  ETV
vector 4  scenario.node[0].appl  posx  ETV
vector 5  scenario.node[0].appl  posy  ETV
vector 22  scenario.node[1].appl  distance  ETV
vector 23  scenario.node[1].appl  relativeSpeed  ETV
vector 24  scenario.node[1].appl  nodeId  ETV
vector 28  scenario.node[1].appl  acceleration  ETV
vector 29  scenario.node[1].appl  controllerAcceleration  ETV
vector 25  scenario.node[1].appl  speed  ETV
vector 26  scenario.node[1].appl  posx  ETV
vector 27  scenario.node[1].appl  posy  ETV
vector 44  scenario.node[2].appl  distance  ETV
vector 45  scenario.node[2].appl  relativeSpeed  ETV
vector 46  scenario.node[2].appl  nodeId  ETV
vector 50  scenario.node[2].appl  acceleration  ETV
vector 51  scenario.node[2].appl  controllerAcceleration  ETV
vector 47  scenario.node[2].appl  speed  ETV
vector 48  scenario.node[2].appl  posx  ETV
vector 49  scenario.node[2].appl  posy  ETV
vector 66  scenario.node[3].appl  distance  ETV
vector 67  scenario.node[3].appl  relativeSpeed  ETV
vector 68  scenario.node[3].appl  nodeId  ETV
vector 72  scenario.node[3].appl  acceleration  ETV
vector 73  scenario.node[3].appl  controllerAcceleration  ETV
vector 69  scenario.node[3].appl  speed  ETV
vector 70  scenario.node[3].appl  posx  ETV
vector 71  scenario.node[3].appl  posy  ETV
vector 88  scenario.node[4].appl  distance  ETV
vector 89  scenario.node[4].appl  relativeSpeed  ETV
vector 90  scenario.node[4].appl  nodeId  ETV
vector 94  scenario.node[4].appl  acceleration  ETV
vector 95  scenario.node[4].appl  controllerAcceleration  ETV
vector 91  scenario.node[4].appl  speed  ETV
vector 92  scenario.node[4].appl  posx  ETV
vector 93  scenario.node[4].appl  posy  ETV
vector 110  scenario.node[5].appl  distance  ETV
vector 111  scenario.node[5].appl  relativeSpeed  ETV
vector 112  scenario.node[5].appl  nodeId  ETV
vector 116  scenario.node[5].appl  acceleration  ETV
vector 117  scenario.node[5].appl  controllerAcceleration  ETV
vector 113  scenario.node[5].appl  speed  ETV
vector 114  scenario.node[5].appl  posx  ETV
vector 115  scenario.node[5].appl  posy  ETV
vector 132  scenario.node[6].appl  distance  ETV
vector 133  scenario.node[6].appl  relativeSpeed  ETV
vector 134  scenario.node[6].appl  nodeId  ETV
vector 138  scenario.node[6].appl  acceleration  ETV
vector 139  scenario.node[6].appl  controllerAcceleration  ETV
vector 135  scenario.node[6].appl  speed  ETV
vector 136  scenario.node[6].appl  posx  ETV
vector 137  scenario.node[6].appl  posy  ETV
vector 154  scenario.node[7].appl  distance  ETV
vector 155  scenario.node[7].appl  relativeSpeed  ETV
vector 156  scenario.node[7].appl  nodeId  ETV
vector 160  scenario.node[7].appl  acceleration  ETV
vector 161  scenario.node[7].appl  controllerAcceleration  ETV
vector 157  scenario.node[7].appl  speed  ETV
vector 158  scenario.node[7].appl  posx  ETV
vector 159  scenario.node[7].appl  posy  ETV
vector 80  scenario.node[3].prot  frontDelay  ETV
vector 78  scenario.node[3].prot  frontDelayId  ETV
vector 58  scenario.node[2].prot  frontDelay  ETV
vector 56  scenario.node[2].prot  frontDelayId  ETV
vector 168  scenario.node[7].prot  frontDelay  ETV
vector 166  scenario.node[7].prot  frontDelayId  ETV
vector 35  scenario.node[1].prot  leaderDelay  ETV
vector 33  scenario.node[1].prot  leaderDelayId  ETV
vector 36  scenario.node[1].prot  frontDelay  ETV
vector 34  scenario.node[1].prot  frontDelayId  ETV
vector 57  scenario.node[2].prot  leaderDelay  ETV
vector 55  scenario.node[2].prot  leaderDelayId  ETV
vector 79  scenario.node[3].prot  leaderDelay  ETV
vector 77  scenario.node[3].prot  leaderDelayId  ETV
vector 101  scenario.node[4].prot  leaderDelay  ETV
vector 99  scenario.node[4].prot  leaderDelayId  ETV
vector 123  scenario.node[5].prot  leaderDelay  ETV
vector 121  scenario.node[5].prot  leaderDelayId  ETV
vector 145  scenario.node[6].prot  leaderDelay  ETV
vector 143  scenario.node[6].prot  leaderDelayId  ETV
vector 167  scenario.node[7].prot  leaderDelay  ETV
vector 165  scenario.node[7].prot  leaderDelayId  ETV
vector 124  scenario.node[5].prot  frontDelay  ETV
vector 122  scenario.node[5].prot  frontDelayId  ETV
vector 102  scenario.node[4].prot  frontDelay  ETV
vector 100  scenario.node[4].prot  frontDelayId  ETV
vector 146  scenario.node[6].prot  frontDelay  ETV
vector 144  scenario.node[6].prot  frontDelayId  ETV
vector 8  scenario.node[0].prot  nodeId  ETV
vector 9  scenario.node[0].prot  busyTime  ETV
vector 10  scenario.node[0].prot  collisions  ETV
vector 30  scenario.node[1].prot  nodeId  ETV
vector 31  scenario.node[1].prot  busyTime  ETV
vector 32  scenario.node[1].prot  collisions  ETV
vector 52  scenario.node[2].prot  nodeId  ETV
vector 53  scenario.node[2].prot  busyTime  ETV
vector 54  scenario.node[2].prot  collisions  ETV
vector 74  scenario.node[3].prot  nodeId  ETV
vector 75  scenario.node[3].prot  busyTime  ETV
vector 76  scenario.node[3].prot  collisions  ETV
vector 96  scenario.node[4].prot  nodeId  ETV
vector 97  scenario.node[4].prot  busyTime  ETV
vector 98  scenario.node[4].prot  collisions  ETV
vector 118  scenario.node[5].prot  nodeId  ETV
vector 119  scenario.node[5].prot  busyTime  ETV
vector 120  scenario.node[5].prot  collisions  ETV
vector 140  scenario.node[6].prot  nodeId  ETV
vector 141  scenario.node[6].prot  busyTime  ETV
vector 142  scenario.node[6].prot  collisions  ETV
vector 162  scenario.node[7].prot  nodeId  ETV
vector 163  scenario.node[7].prot  busyTime  ETV
vector 164  scenario.node[7].prot  collisions  ETV
7	11232 11663 232 275187 1.11 50.41 494 -1.5 1.5 -7.1780344842067 821.65269374685
6	22895 15578 232 275187 1.11 50.41 494 -1.4722746794739 1.4513434107982 -11.585056642915 552.50311406741
5	38473 10086 232 275187 1.11 50.41 494 36.55 36.55 18055.7 659935.835
4	48559 14957 232 275187 1.11 50.41 494 128.60653190573 2186.4598529875 572621.57675927 838657355.6006
3	63516 14954 232 275187 1.11 50.41 494 40.376854770771 43.631381416411 20619.78933742 861053.95454648
1	78470 8110 232 275187 1.11 50.41 494 0 0 0 0
0	86580 8604 232 275187 1.11 50.41 494 -1 -1 -494 494
2	95184 8110 232 275187 1.11 50.41 494 0 0 0 0
10	103294 708 5102 272816 2 50 49 0 0 0 0
9	104002 954 5102 272816 2 50 49 0.022969 0.02625 1.282969 0.033602574961
8	104956 659 5102 272816 2 50 49 0 0 0 0
51	105615 16300 234 275189 1.11 50.41 494 -1.4952754260415 1.4970992039428 4.09188508796 455.42237850363
50	121915 16333 234 275189 1.11 50.41 494 -1.4761121309526 1.4494360551055 4.3435395016829 318.06357568103
49	138248 10580 234 275189 1.11 50.41 494 36.55 36.55 18055.7 659935.835
48	148828 15477 234 275189 1.11 50.41 494 102.60653190613 2175.7307659875 561094.3287611 814367382.23978
47	164305 15453 234 275189 1.11 50.41 494 40.370963969296 43.632231713036 20773.061340312 873854.72729611
45	179758 16740 234 275189 1.11 50.41 494 -0.47709016364464 0.039108608160674 -63.062034463187 24.534431808865
44	196498 15455 234 275189 1.11 50.41 494 2.7075923026605 9.0735112746398 3895.9649198398 32569.653755735
46	211953 8604 234 275189 1.11 50.41 494 2 2 988 1976
58	220557 19832 900 275299 1.229658300899 50.429654499571 493 0.099998766012 0.100012224807 49.299995412845 4.9299990876213
57	240389 19796 1038 274880 1.25491182126 50.354831037543 492 0.099907824827 0.100103215501 49.199931430456 4.9199871590971
56	260185 13465 900 275299 1.229658300899 50.429654499571 493 2 2 986 1972
55	273650 13447 1038 274880 1.25491182126 50.354831037543 492 2 2 984 1968
54	287097 708 5104 272818 2 50 49 0 0 0 0
53	287805 1003 5104 272818 2 50 49 0.022969 0.02625 1.282969 0.033602574961
52	288808 708 5104 272818 2 50 49 2 2 98 196
73	289516 16262 235 275190 1.11 50.41 494 -1.4890877726435 1.4891492823534 6.6224918684928 445.27606320358
72	305778 16315 235 275190 1.11 50.41 494 -1.4634887767407 1.436258113813 7.0133090965719 314.4107429634
71	322093 10580 235 275190 1.11 50.41 494 36.55 36.55 18055.7 659935.835
70	332673 15453 235 275190 1.11 50.41 494 89.606531906128 2168.2524809525 555103.92632431 801548110.14004
69	348126 15471 235 275190 1.11 50.41 494 40.38052046713 43.618937130652 20828.372132791 878584.62165445
67	363597 16870 235 275190 1.11 50.41 494 -0.42438656047009 0.020412762615379 -55.35422787428 19.239952952674
66	380467 15468 235 275190 1.11 50.41 494 3.4836470436699 9.0493611238682 4015.5086526359 33883.000964885
68	395935 8604 235 275190 1.11 50.41 494 3 3 1482 4446
80	404539 19817 832 275231 1.213905257536 50.413901479803 493 0.099998766062 0.10001222289 49.29999543644 4.9299990923374
79	424356 19793 1044 274886 1.254911864623 50.354831062541 492 0.099907824718 0.10010321551 49.199931412091 4.9199871554241
78	444149 13464 832 275231 1.213905257536 50.413901479803 493 3 3 1479 4437
77	457613 13440 1044 274886 1.254911864623 50.354831062541 492 3 3 1476 4428
76	471053 708 5105 272819 2 50 49 0 0 0 0
75	471761 1003 5105 272819 2 50 49 0.022968 0.02625 1.282968 0.033602529024
74	472764 708 5105 272819 2 50 49 3 3 147 441
95	473472 16203 236 275191 1.11 50.41 494 -1.4821537209684 1.4817587938809 9.5008925935145 436.49577601438
94	489675 16267 236 275191 1.11 50.41 494 -1.4527428079603 1.4261913688827 10.027595765763 311.14328862422
93	505942 10580 236 275191 1.11 50.41 494 36.55 36.55 18055.7 659935.835
92	516522 15467 236 275191 1.11 50.41 494 76.606531906128 2159.9663783975 549014.12361655 788499919.42054
91	531989 15462 236 275191 1.11 50.41 494 40.389239613298 43.619895252292 20875.616799974 882652.54985675
89	547451 16923 236 275191 1.11 50.41 494 -0.37047287332214 0.01456316936612 -47.314800274049 14.787868241234
88	564374 15448 236 275191 1.11 50.41 494 4.2921525364791 9.0268300166192 4114.7476011025 35078.342088119
90	579822 8604 236 275191 1.11 50.41 494 4 4 1976 7904
102	588426 20278 1246 275089 1.303562254892 50.403559341683 492 0.099998766552 0.100012221552 49.199996300964 4.91999926524
101	608704 20271 1050 274892 1.254911907986 50.354831090241 492 0.099907824604 0.100103215514 49.199931396428 4.9199871522915
100	628975 13940 1246 275089 1.303562254892 50.403559341683 492 4 4 1968 7872
99	642915 13448 1050 274892 1.254911907986 50.354831090241 492 4 4 1968 7872
98	656363 708 5106 272820 2 50 49 0 0 0 0
97	657071 1003 5106 272820 2 50 49 0.022969 0.02625 1.282969 0.033602574961
96	658074 708 5106 272820 2 50 49 4 4 196 784
117	658782 16700 237 275192 1.11 50.41 494 -1.4896672565508 1.4914667236655 12.68476629004 449.7391490799
116	675482 16769 237 275192 1.11 50.41 494 -1.4475619053982 1.4230601866359 13.157271270889 309.93347534621
115	692251 11074 237 275192 1.11 50.41 494 36.55 36.55 18055.7 659935.835
114	703325 15953 237 275192 1.11 50.41 494 63.606531906128 2150.8899573747 542846.03693618 775303396.02058
113	719278 15955 237 275192 1.11 50.41 494 40.393934532509 43.837856947251 20914.962053335 886061.95843586
111	735233 17256 237 275192 1.11 50.41 494 -0.33301600654999 0.039951922733522 -39.445529318275 11.039125967123
110	752489 15947 237 275192 1.11 50.41 494 5.082681284613 9.0346842062774 4192.8735854441 36090.847787319
112	768436 9098 237 275192 1.11 50.41 494 5 5 2470 12350
124	777534 20278 1172 275014 1.265748211529 50.365758316671 492 0.099998770112 0.100012224796 49.200009319315 4.9200018690539
123	797812 20275 1056 274898 1.25491195135 50.35483112058 492 0.099907824493 0.100103215506 49.199931383403 4.9199871496865
122	818087 13931 1172 275014 1.265748211529 50.365758316671 492 5 5 2460 12300
121	832018 13926 1056 274898 1.25491195135 50.35483112058 492 5 5 2460 12300
120	845944 757 5107 272821 2 50 49 0 0 0 0
119	846701 1052 5107 272821 2 50 49 0.022968 0.02625 1.282968 0.033602529024
118	847753 757 5107 272821 2 50 49 5 5 245 1225
139	848510 16675 238 275193 1.11 50.41 494 -1.4807582961595 1.4812783321876 15.516115437661 440.67269941699
138	865185 16737 238 275193 1.11 50.41 494 -1.4503739292806 1.4264948369757 16.193118262051 313.52076603752
137	881922 11074 238 275193 1.11 50.41 494 36.55 36.55 18055.7 659935.835
136	892996 15959 238 275193 1.11 50.41 494 50.606529998779 2141.0812955026 536613.47085921 762015387.65285
135	908955 15954 238 275193 1.11 50.41 494 40.388613774651 44.015759554438 20946.981980529 888855.52683667
133	924909 17353 238 275193 1.11 50.41 494 -0.30590423980085 0.022609920282605 -32.15149990715 7.7663163220571
132	942262 15949 238 275193 1.11 50.41 494 5.8147519556915 9.014292288279 4257.2064755145 36991.649323562
134	958211 9098 238 275193 1.11 50.41 494 6 6 2964 17784
146	967309 20299 1312 275155 1.305158341619 50.405155404697 492 0.099998766346 0.100012225093 49.199996277251 4.9199992605031
145	987608 20280 1062 274904 1.254911994713 50.354831153359 492 0.099907824392 0.100103215505 49.199931372819 4.9199871475697
144	1007888 13933 1312 275155 1.305158341619 50.405155404697 492 6 6 2952 17712
143	1021821 13924 1062 274904 1.254911994713 50.354831153359 492 6 6 2952 17712
142	1035745 757 5108 272822 2 50 49 0 0 0 0
141	1036502 1052 5108 272822 2 50 49 0.022969 0.02625 1.282969 0.033602574961
140	1037554 757 5108 272822 2 50 49 6 6 294 1764
161	1038311 16703 239 275194 1.11 50.41 494 -1.4938774169491 1.4938088441259 18.542099568452 455.81644027406
160	1055014 16762 239 275194 1.11 50.41 494 -1.4564665778309 1.4312228061911 19.036654400904 315.70409807982
159	1071776 11074 239 275194 1.11 50.41 494 36.55 36.55 18055.7 659935.835
158	1082850 15966 239 275194 1.11 50.41 494 37.606529998779 2130.6254968393 530328.86444138 748687037.10199
157	1098816 15964 239 275194 1.11 50.41 494 40.384089038848 44.164472049663 20972.523220566 891095.61029063
155	1114780 17507 239 275194 1.11 50.41 494 -0.28220902309858 0.011006372901463 -25.703171219913 5.3790992015994
154	1132287 15947 239 275194 1.11 50.41 494 6.4614644779472 9.0256962994738 4309.1172426275 37765.079411484
156	1148234 9098 239 275194 1.11 50.41 494 7 7 3458 24206
168	1157332 20286 975 274817 1.254433517716 50.354430884428 492 0.099998768973 0.100012224037 49.199996580885 4.9199993212267
167	1177618 20281 1068 274910 1.254912038076 50.354831188292 492 0.099907824301 0.100103215512 49.199931364389 4.9199871458837
166	1197899 13934 975 274817 1.254433517716 50.354430884428 492 7 7 3444 24108
165	1211833 13927 1068 274910 1.254912038076 50.354831188292 492 7 7 3444 24108
164	1225760 757 5109 272823 2 50 49 0 0 0 0
163	1226517 1052 5109 272823 2 50 49 0.022969 0.02625 1.282969 0.033602574961
162	1227569 757 5109 272823 2 50 49 7 7 343 2401
22	1228326 15496 233 275331 1.11 50.43 495 0 11.199067642995 3682.3485183867 31714.876991797
23	1243822 16586 233 275331 1.11 50.43 495 -2.1678873616295 1.266272882052 -91.516057910786 242.43673153413
24	1260408 8622 233 275331 1.11 50.43 495 1 1 495 495
25	1269030 15499 233 275331 1.11 50.43 495 40.364100465441 43.637493193157 20751.914054316 870257.51502759
26	1284529 15482 233 275331 1.11 50.43 495 115.60653190613 2183.2719958026 569148.30488639 831647420.7488
27	1300011 10602 233 275331 1.11 50.43 495 36.55 36.55 18092.25 661271.7375
28	1310613 16410 233 275331 1.11 50.43 495 -1.4840815554159 1.4595456978697 2.2220998289178 318.55230143179
29	1327023 16346 233 275331 1.11 50.43 495 -1.5129716526988 1.5129648429843 2.0647116791267 464.92397587987
30	1343369 708 5103 272817 2 50 49 1 1 49 49
31	1344077 1003 5103 272817 2 50 49 0.022969 0.02625 1.282969 0.033602574961
32	1345080 708 5103 272817 2 50 49 0 0 0 0
33	1345788 13433 1032 274874 1.254911777896 50.35483101514 492 1 1 492 492
34	1359221 13433 1032 274874 1.254911777896 50.35483101514 492 1 1 492 492
35	1372654 19782 1032 274874 1.254911777896 50.35483101514 492 0.099907824923 0.100103215485 49.199931451417 4.9199871632893
36	1392436 19782 1032 274874 1.254911777896 50.35483101514 492 0.099907824923 0.100103215485 49.199931451417 4.9199871632893
