file 983176 1501602787                                          
version 2
run SinusoidalJammingDetail-492-20170801-17:52:47-117317
attr CACCSpacing 7
attr attackAcc -30
attr attackPos 7
attr attackSpeed 150
attr attackStart 31
attr attacker 1
attr beaconInterval 0.1
attr configname SinusoidalJammingDetail
attr controller 1
attr datetime 20170801-17:52:47
attr experiment SinusoidalJammingDetail
attr fakeAcc "(1 == 4)"
attr fakePos "(1 == 2)"
attr fakeSpeed "(1 == 3)"
attr inifile omnetpp_492.ini
attr iterationvars "$leaderSpeed=120, $controller=1, $CACCSpacing=7, $sController=\"CACC\", $attacker=1, $attackStart=31, $attackSpeed=150, $attackPos=7, $attackAcc=-30, $0=7, $1=0, $nCars=8, $platoonSize=8, $nLanes=1, $beaconInterval=0.1, $priority=2, $packetSize=200, $ploegH=0.5, $leaderHeadway=1.2, $fakeSpeed=(1 == 3), $fakeAcc=(1 == 4), $fakePos=(1 == 2)"
attr iterationvarsf leaderSpeed=120,controller=1,CACCSpacing=7,sController=CACC,attacker=1,attackStart=31,attackSpeed=150,attackPos=7,attackAcc=-30,7,0,nCars=8,platoonSize=8,nLanes=1,beaconInterval=0.1,priority=2,packetSize=200,ploegH=0.5,leaderHeadway=1.2,fakeSpeed=(1_==_3),fakeAcc=(1_==_4),fakePos=(1_==_2)-
attr leaderHeadway 1.2
attr leaderSpeed 120
attr measurement "$leaderSpeed=120, $controller=1, $CACCSpacing=7, $sController=\"CACC\", $attacker=1, $attackStart=31, $attackSpeed=150, $attackPos=7, $attackAcc=-30, $0=7, $1=0, $nCars=8, $platoonSize=8, $nLanes=1, $beaconInterval=0.1, $priority=2, $packetSize=200, $ploegH=0.5, $leaderHeadway=1.2, $fakeSpeed=(1 == 3), $fakeAcc=(1 == 4), $fakePos=(1 == 2)"
attr nCars 8
attr nLanes 1
attr network scenario
attr packetSize 200
attr platoonSize 8
attr ploegH 0.5
attr priority 2
attr processid 117317
attr repetition 2
attr replication #2
attr resultdir results
attr runnumber 492
attr sController "\"CACC\""
attr seedset 2
param **.coreDebug false
param **.debug false
param **.headway 0.1s
param **.numberOfCars 8
param **.numberOfCarsPerPlatoon 8
param **.numberOfLanes 1
param **.numericController 1
param **.traffic.nCars 8
param **.traffic.nLanes 1
param **.traffic.platoonInsertDistance 7m
param **.traffic.platoonInsertHeadway 0s
param **.traffic.platoonInsertSpeed 120kmph
param **.traffic.platoonInsertTime "1 s"
param **.traffic.platoonLeaderHeadway 1.2s
param **.traffic.platoonSize 8
param **.traffic.platooningVType "\"vtypeauto\""
param **.traffic_type "\"PlatoonsTrafficManager\""
param *.**.nic.mac1609_4.bitrate 6Mbps
param *.**.nic.mac1609_4.txPower 100mW
param *.**.nic.mac1609_4.useServiceChannel false
param *.**.nic.phy80211p.analogueModels "xmldoc(\"config.xml\")"
param *.**.nic.phy80211p.decider "xmldoc(\"config.xml\")"
param *.**.nic.phy80211p.maxTXPower 100mW
param *.**.nic.phy80211p.sensitivity -94dBm
param *.**.nic.phy80211p.thermalNoise -95dBm
param *.**.nic.phy80211p.usePropagationDelay true
param *.**.nic.phy80211p.useThermalNoise true
param *.annotations.draw false
param *.connectionManager.alpha 2.0
param *.connectionManager.carrierFrequency "5.890e9 Hz"
param *.connectionManager.pMax 100mW
param *.connectionManager.sat -94dBm
param *.connectionManager.sendDirect true
param *.manager.autoShutdown true
param *.manager.commandLine "\"sumo --remote-port $port --seed $seed --configuration-file $configFile\""
param *.manager.configFile "\"./sumocfg/freeway.sumo.cfg\""
param *.manager.host "\"localhost\""
param *.manager.margin 25
param *.manager.moduleDisplayString "\"\""
param *.manager.moduleName "\"node\""
param *.manager.moduleType "\"Car\""
param *.manager.updateInterval 0.01s
param *.node[*].appl.attackStart 31s
param *.node[*].appl.attackerType 1
param *.node[*].appl.simulationDuration "60 s"
param *.node[*].appl_type "\"SimplePlatooningApp\""
param *.node[*].helper.nCars 8
param *.node[*].helper.nLanes 1
param *.node[*].helper.platoonSize 8
param *.node[*].helper_type "\"PositionHelper\""
param *.node[*].mobility.x 0
param *.node[*].mobility.y 0
param *.node[*].mobility.z 1.895
param *.node[*].prot.attackStart 31s
param *.node[*].prot.attackerType 1
param *.node[*].prot.attackingNode 3
param *.node[*].prot.beaconingInterval 0.1s
param *.node[*].prot.fakeAcc "(1 == 4)"
param *.node[*].prot.fakePos "(1 == 2)"
param *.node[*].prot.fakeSpeed "(1 == 3)"
param *.node[*].prot.maliciousAcc "-30 mpss"
param *.node[*].prot.maliciousSpeed 150kmph
param *.node[*].prot.packetSize 200
param *.node[*].prot.priority 2
param *.node[*].prot.shiftX "7 m"
param *.node[*].prot.useControllerAcceleration true
param *.node[*].protocol_type "\"SimplePlatooningBeaconing\""
param *.node[*].scenario.accHeadway 0.1s
param *.node[*].scenario.caccC1 0.5
param *.node[*].scenario.caccOmegaN "0.2 Hz"
param *.node[*].scenario.caccSpacing 7m
param *.node[*].scenario.caccXi 1
param *.node[*].scenario.controller "\"CACC\""
param *.node[*].scenario.engineTau "0.5 s"
param *.node[*].scenario.leaderHeadway 1.2s
param *.node[*].scenario.leaderOscillationFrequency "0.2 Hz"
param *.node[*].scenario.leaderSpeed 120kmph
param *.node[*].scenario.oscillationAmplitude "10 kmph"
param *.node[*].scenario.ploegH 0.5s
param *.node[*].scenario.ploegKd 0.7
param *.node[*].scenario.ploegKp 0.2
param *.node[*].scenario.startOscillating "5 s"
param *.node[*].scenario.useRealisticEngine false
param *.node[*].scenario_type "\"SinusoidalScenario\""
param *.node[*].unicast.packetLossRate 0
param *.obstacles.debug false
param *.playgroundSizeX 65000m
param *.playgroundSizeY 25000m
param *.playgroundSizeZ 50m
param *.world.use2D false
param *.world.useTorus false

vector 0  scenario.node[0].appl  distance  ETV
vector 1  scenario.node[0].appl  relativeSpeed  ETV
vector 2  scenario.node[0].appl  nodeId  ETV
vector 6  scenario.node[0].appl  acceleration  ETV
vector 7  scenario.node[0].appl  controllerAcceleration  ETV
vector 3  scenario.node[0].appl  speed  ETV
vector 4  scenario.node[0].appl  posx  ETV
vector 5  scenario.node[0].appl  posy  ETV
vector 22  scenario.node[1].appl  distance  ETV
vector 23  scenario.node[1].appl  relativeSpeed  ETV
vector 24  scenario.node[1].appl  nodeId  ETV
vector 28  scenario.node[1].appl  acceleration  ETV
vector 29  scenario.node[1].appl  controllerAcceleration  ETV
vector 25  scenario.node[1].appl  speed  ETV
vector 26  scenario.node[1].appl  posx  ETV
vector 27  scenario.node[1].appl  posy  ETV
vector 44  scenario.node[2].appl  distance  ETV
vector 45  scenario.node[2].appl  relativeSpeed  ETV
vector 46  scenario.node[2].appl  nodeId  ETV
vector 50  scenario.node[2].appl  acceleration  ETV
vector 51  scenario.node[2].appl  controllerAcceleration  ETV
vector 47  scenario.node[2].appl  speed  ETV
vector 48  scenario.node[2].appl  posx  ETV
vector 49  scenario.node[2].appl  posy  ETV
vector 66  scenario.node[3].appl  distance  ETV
vector 67  scenario.node[3].appl  relativeSpeed  ETV
vector 68  scenario.node[3].appl  nodeId  ETV
vector 72  scenario.node[3].appl  acceleration  ETV
vector 73  scenario.node[3].appl  controllerAcceleration  ETV
vector 69  scenario.node[3].appl  speed  ETV
vector 70  scenario.node[3].appl  posx  ETV
vector 71  scenario.node[3].appl  posy  ETV
vector 88  scenario.node[4].appl  distance  ETV
vector 89  scenario.node[4].appl  relativeSpeed  ETV
vector 90  scenario.node[4].appl  nodeId  ETV
vector 94  scenario.node[4].appl  acceleration  ETV
vector 95  scenario.node[4].appl  controllerAcceleration  ETV
vector 91  scenario.node[4].appl  speed  ETV
vector 92  scenario.node[4].appl  posx  ETV
vector 93  scenario.node[4].appl  posy  ETV
vector 110  scenario.node[5].appl  distance  ETV
vector 111  scenario.node[5].appl  relativeSpeed  ETV
vector 112  scenario.node[5].appl  nodeId  ETV
vector 116  scenario.node[5].appl  acceleration  ETV
vector 117  scenario.node[5].appl  controllerAcceleration  ETV
vector 113  scenario.node[5].appl  speed  ETV
vector 114  scenario.node[5].appl  posx  ETV
vector 115  scenario.node[5].appl  posy  ETV
vector 132  scenario.node[6].appl  distance  ETV
vector 133  scenario.node[6].appl  relativeSpeed  ETV
vector 134  scenario.node[6].appl  nodeId  ETV
vector 138  scenario.node[6].appl  acceleration  ETV
vector 139  scenario.node[6].appl  controllerAcceleration  ETV
vector 135  scenario.node[6].appl  speed  ETV
vector 136  scenario.node[6].appl  posx  ETV
vector 137  scenario.node[6].appl  posy  ETV
vector 154  scenario.node[7].appl  distance  ETV
vector 155  scenario.node[7].appl  relativeSpeed  ETV
vector 156  scenario.node[7].appl  nodeId  ETV
vector 160  scenario.node[7].appl  acceleration  ETV
vector 161  scenario.node[7].appl  controllerAcceleration  ETV
vector 157  scenario.node[7].appl  speed  ETV
vector 158  scenario.node[7].appl  posx  ETV
vector 159  scenario.node[7].appl  posy  ETV
vector 168  scenario.node[7].prot  frontDelay  ETV
vector 166  scenario.node[7].prot  frontDelayId  ETV
vector 146  scenario.node[6].prot  frontDelay  ETV
vector 144  scenario.node[6].prot  frontDelayId  ETV
vector 35  scenario.node[1].prot  leaderDelay  ETV
vector 33  scenario.node[1].prot  leaderDelayId  ETV
vector 36  scenario.node[1].prot  frontDelay  ETV
vector 34  scenario.node[1].prot  frontDelayId  ETV
vector 57  scenario.node[2].prot  leaderDelay  ETV
vector 55  scenario.node[2].prot  leaderDelayId  ETV
vector 79  scenario.node[3].prot  leaderDelay  ETV
vector 77  scenario.node[3].prot  leaderDelayId  ETV
vector 101  scenario.node[4].prot  leaderDelay  ETV
vector 99  scenario.node[4].prot  leaderDelayId  ETV
vector 123  scenario.node[5].prot  leaderDelay  ETV
vector 121  scenario.node[5].prot  leaderDelayId  ETV
vector 145  scenario.node[6].prot  leaderDelay  ETV
vector 143  scenario.node[6].prot  leaderDelayId  ETV
vector 167  scenario.node[7].prot  leaderDelay  ETV
vector 165  scenario.node[7].prot  leaderDelayId  ETV
vector 102  scenario.node[4].prot  frontDelay  ETV
vector 100  scenario.node[4].prot  frontDelayId  ETV
vector 80  scenario.node[3].prot  frontDelay  ETV
vector 78  scenario.node[3].prot  frontDelayId  ETV
vector 124  scenario.node[5].prot  frontDelay  ETV
vector 122  scenario.node[5].prot  frontDelayId  ETV
vector 58  scenario.node[2].prot  frontDelay  ETV
vector 56  scenario.node[2].prot  frontDelayId  ETV
vector 8  scenario.node[0].prot  nodeId  ETV
vector 9  scenario.node[0].prot  busyTime  ETV
vector 10  scenario.node[0].prot  collisions  ETV
vector 30  scenario.node[1].prot  nodeId  ETV
vector 31  scenario.node[1].prot  busyTime  ETV
vector 32  scenario.node[1].prot  collisions  ETV
vector 52  scenario.node[2].prot  nodeId  ETV
vector 53  scenario.node[2].prot  busyTime  ETV
vector 54  scenario.node[2].prot  collisions  ETV
vector 74  scenario.node[3].prot  nodeId  ETV
vector 75  scenario.node[3].prot  busyTime  ETV
vector 76  scenario.node[3].prot  collisions  ETV
vector 96  scenario.node[4].prot  nodeId  ETV
vector 97  scenario.node[4].prot  busyTime  ETV
vector 98  scenario.node[4].prot  collisions  ETV
vector 118  scenario.node[5].prot  nodeId  ETV
vector 119  scenario.node[5].prot  busyTime  ETV
vector 120  scenario.node[5].prot  collisions  ETV
vector 140  scenario.node[6].prot  nodeId  ETV
vector 141  scenario.node[6].prot  busyTime  ETV
vector 142  scenario.node[6].prot  collisions  ETV
vector 162  scenario.node[7].prot  nodeId  ETV
vector 163  scenario.node[7].prot  busyTime  ETV
vector 164  scenario.node[7].prot  collisions  ETV
7	11234 8237 232 192631 1.11 35.61 346 -1.5 1.5 -4.1779559958661 552.85883058508
6	19471 10863 232 192631 1.11 35.61 346 -1.4722746795918 1.4513407705138 -9.8648597010239 368.60215230437
5	30334 6978 232 192631 1.11 35.61 346 36.55 36.55 12646.3 462222.265
4	37312 10400 232 192631 1.11 35.61 346 115.22663612406 1268.6932289443 239936.58824736 204992351.87542
3	47712 10401 232 192631 1.11 35.61 346 32.043531245463 35.298048086563 11567.646959511 386996.04593968
1	58113 5594 232 192631 1.11 35.61 346 0 0 0 0
0	63707 5940 232 192631 1.11 35.61 346 -1 -1 -346 346
2	69647 5594 232 192631 1.11 35.61 346 0 0 0 0
10	75241 483 5168 189212 2 35 34 0 0 0 0
9	75724 654 5168 189212 2 35 34 0.023297 0.02625 0.889547 0.023281812709
8	76378 449 5168 189212 2 35 34 0 0 0 0
51	76827 11111 234 192633 1.11 35.61 346 -1.4963007030882 1.49671546488 32.886295923731 487.75412144834
50	87938 11148 234 192633 1.11 35.61 346 -1.4778825378116 1.4525906663224 31.97042167285 349.1023254682
49	99086 7324 234 192633 1.11 35.61 346 36.55 36.55 12646.3 462222.265
48	106410 10743 234 192633 1.11 35.61 346 93.226636123657 1254.3682066719 232399.30545964 194792904.7941
47	117153 10741 234 192633 1.11 35.61 346 32.042284524887 36.520524565588 11645.866423495 392376.63241817
45	127894 11797 234 192633 1.11 35.61 346 -0.5837169168031 0.017598430697966 -9.8043755717514 3.7472887611966
44	139691 10740 234 192633 1.11 35.61 346 6.0778661889951 7.0458890126319 2412.5587752479 16827.844575668
46	150431 5940 234 192633 1.11 35.61 346 2 2 692 1384
58	156371 13736 1312 192599 1.30260946768 35.602602728404 344 0.099998736806 0.100011809858 34.400005067948 3.4400010184947
57	170107 13788 1040 192883 1.262217174144 35.662222182827 345 0.09999873777 0.100011809784 34.500003815907 3.4500007680868
56	183895 9300 1312 192599 1.30260946768 35.602602728404 344 2 2 688 1376
55	193195 9337 1040 192883 1.262217174144 35.662222182827 345 2 2 690 1380
54	202532 483 5170 189214 2 35 34 0 0 0 0
53	203015 688 5170 189214 2 35 34 0.023297 0.02625 0.889547 0.023281812709
52	203703 483 5170 189214 2 35 34 2 2 68 136
73	204186 11121 235 192634 1.11 35.61 346 -1.5144504377981 1.5154441641397 37.84283886869 503.88111450633
72	215307 11151 235 192634 1.11 35.61 346 -1.4663369221822 1.4406082200324 35.529304545111 348.39195412099
71	226458 7324 235 192634 1.11 35.61 346 36.55 36.55 12646.3 462222.265
70	233782 10752 235 192634 1.11 35.61 346 82.22663230896 1243.8709512344 228597.53984228 189734585.44654
69	244534 10733 235 192634 1.11 35.61 346 32.053895760254 36.868793631967 11651.016876608 392745.88181174
67	255267 11909 235 192634 1.11 35.61 346 -0.35065564214862 0.01494840890377 -5.470157329652 1.2167069646859
66	267176 10745 235 192634 1.11 35.61 346 6.5042208188254 7.040654931489 2417.8686264288 16897.812037427
68	277921 5940 235 192634 1.11 35.61 346 3 3 1038 3114
80	283861 13777 1176 193019 1.28787328422 35.687878287659 345 0.099998733134 0.1000118098 34.500003810663 3.4500007670392
79	297638 13779 1046 192889 1.262217210836 35.662222217783 345 0.099998737658 0.100011809791 34.500003814171 3.4500007677396
78	311417 9331 1176 193019 1.28787328422 35.687878287659 345 3 3 1035 3105
77	320748 9325 1046 192889 1.262217210836 35.662222217783 345 3 3 1035 3105
76	330073 483 5171 189215 2 35 34 0 0 0 0
75	330556 688 5171 189215 2 35 34 0.023297 0.02625 0.889547 0.023281812709
74	331244 483 5171 189215 2 35 34 3 3 102 306
95	331727 11113 236 192635 1.11 35.61 346 -1.5000260611885 1.5032357306564 40.324314506336 497.38339980787
94	342840 11153 236 192635 1.11 35.61 346 -1.4562064309665 1.4309616958911 37.58855829935 346.68670801635
93	353993 7324 236 192635 1.11 35.61 346 36.55 36.55 12646.3 462222.265
92	361317 10740 236 192635 1.11 35.61 346 71.22663230896 1233.1391775955 224793.08136311 184753186.18561
91	372057 10757 236 192635 1.11 35.61 346 32.064224228711 37.069777839226 11653.770309766 392943.10110879
89	382814 11854 236 192635 1.11 35.61 346 -0.20479291498222 0.014322369913707 -3.1087262038623 0.39793230244588
88	394668 10730 236 192635 1.11 35.61 346 6.7357933231162 7.0268464294953 2420.5135478252 16933.646151548
90	405398 5940 236 192635 1.11 35.61 346 4 4 1384 5536
102	411338 14113 1108 192951 1.276579247528 35.676584253539 345 0.099998733301 0.100011809804 34.500003813235 3.4500007675535
101	425451 14124 1052 192895 1.262217247528 35.662222253546 345 0.099998737594 0.100011809795 34.500003813242 3.4500007675538
100	439575 9668 1108 192951 1.276579247528 35.676584253539 345 4 4 1380 5520
99	449243 9330 1052 192895 1.262217247528 35.662222253546 345 4 4 1380 5520
98	458573 483 5172 189216 2 35 34 0 0 0 0
97	459056 688 5172 189216 2 35 34 0.023297 0.02625 0.889547 0.023281812709
96	459744 483 5172 189216 2 35 34 4 4 136 544
117	460227 11462 237 192636 1.11 35.61 346 -1.508542389171 1.5107019449867 42.162774066316 507.58379817179
116	471689 11494 237 192636 1.11 35.61 346 -1.4566506657722 1.4330842503419 38.834918616566 350.64246114339
115	483183 7670 237 192636 1.11 35.61 346 36.55 36.55 12646.3 462222.265
114	490853 11092 237 192636 1.11 35.61 346 60.226634216309 1222.3401193913 220988.35225079 179853964.72996
113	501945 11092 237 192636 1.11 35.61 346 32.059272015275 37.193364570574 11655.823358669 393093.10345531
111	513037 12087 237 192636 1.11 35.61 346 -0.12836010819265 0.032962835879111 -2.4289344855663 0.30989148282985
110	525124 11099 237 192636 1.11 35.61 346 6.8015299387971 7.024532116421 2420.7701732989 16937.11806778
112	536223 6286 237 192636 1.11 35.61 346 5 5 1730 8650
124	542509 14094 1244 192530 1.297503357604 35.597509626372 344 0.099998737327 0.100011809732 34.400005075992 3.4400010201032
123	556603 14117 1058 192901 1.26221728422 35.662222289547 345 0.099998737554 0.100011809794 34.500003812551 3.4500007674156
122	570720 9644 1244 192530 1.297503357604 35.597509626372 344 5 5 1720 8600
121	580364 9680 1058 192901 1.26221728422 35.662222289547 345 5 5 1725 8625
120	590044 517 5173 189217 2 35 34 0 0 0 0
119	590561 722 5173 189217 2 35 34 0.023297 0.02625 0.889547 0.023281812709
118	591283 517 5173 189217 2 35 34 5 5 170 850
139	591800 11466 238 192637 1.11 35.61 346 -1.4954220953545 1.4958358036217 42.421528985616 498.34109039455
138	603266 11514 238 192637 1.11 35.61 346 -1.4604220915402 1.435706515305 39.565980986922 353.14011524449
137	614780 7670 238 192637 1.11 35.61 346 36.55 36.55 12646.3 462222.265
136	622450 11084 238 192637 1.11 35.61 346 49.226634216309 1211.3860518137 217180.92369582 175032346.29574
135	633534 11102 238 192637 1.11 35.61 346 32.058008592813 37.262676982676 11656.307653629 393131.02199118
133	644636 12329 238 192637 1.11 35.61 346 -0.074650865734633 0.011156246158336 -0.87264414632535 0.059341838982606
132	656965 11071 238 192637 1.11 35.61 346 6.9554538258265 7.0279109820736 2423.4382408726 16974.213995664
134	668036 6286 238 192637 1.11 35.61 346 6 6 2076 12456
146	674322 14109 970 192813 1.247594953992 35.647600018144 345 0.099998736495 0.100011809705 34.500003871376 3.4500007791813
145	688431 14128 1064 192907 1.262217320912 35.662222326074 345 0.099998737533 0.100011809795 34.500003812386 3.4500007673826
144	702559 9661 970 192813 1.247594953992 35.647600018144 345 6 6 2070 12420
143	712220 9679 1064 192907 1.262217320912 35.662222326074 345 6 6 2070 12420
142	721899 517 5174 189218 2 35 34 0 0 0 0
141	722416 722 5174 189218 2 35 34 0.023297 0.02625 0.889547 0.023281812709
140	723138 517 5174 189218 2 35 34 6 6 204 1224
161	723655 11466 239 192638 1.11 35.61 346 -1.4854568374091 1.4867112472519 42.46495122075 486.385869105
160	735121 11513 239 192638 1.11 35.61 346 -1.4553421799924 1.4301187273759 39.886361518882 351.20115245624
159	746634 7670 239 192638 1.11 35.61 346 36.55 36.55 12646.3 462222.265
158	754304 11091 239 192638 1.11 35.61 346 38.226633262634 1200.4023336899 213373.6552311 170294770.51765
157	765395 11095 239 192638 1.11 35.61 346 32.06417379542 37.295641375925 11656.482175285 393142.72316491
155	776490 12363 239 192638 1.11 35.61 346 -0.038713609380835 0.0095544887765016 -0.57018146586974 0.024253557596887
154	788853 11089 239 192638 1.11 35.61 346 6.9843774116716 7.014908865815 2423.2719551536 16971.821626142
156	799942 6286 239 192638 1.11 35.61 346 7 7 2422 16954
168	806228 14110 832 192675 1.212136843916 35.612128908439 345 0.099998736552 0.100011809927 34.499990871747 3.4499981791183
167	820338 14138 1070 192913 1.262217357604 35.662222362706 345 0.099998737522 0.100011809798 34.500003812326 3.4500007673706
166	834476 9668 832 192675 1.212136843916 35.612128908439 345 7 7 2415 16905
165	844144 9683 1070 192913 1.262217357604 35.662222362706 345 7 7 2415 16905
164	853827 517 5175 189219 2 35 34 0 0 0 0
163	854344 722 5175 189219 2 35 34 0.023297 0.02625 0.889547 0.023281812709
162	855066 517 5175 189219 2 35 34 7 7 238 1666
22	855583 10769 233 193051 1.11 35.69 347 0 7.1975225587771 2358.2884017526 16356.535367868
23	866352 11655 233 193051 1.11 35.69 347 -3.850931556871 0.2123113618566 -72.133859197634 229.94802473877
24	878007 5958 233 193051 1.11 35.69 347 1 1 347 347
25	883965 10780 233 193051 1.11 35.69 347 32.03605099481 35.939940546883 11672.262650141 392986.15662827
26	894745 10781 233 193051 1.11 35.69 347 104.22663612366 1267.3095434621 237462.98290407 201527644.86377
27	905526 7346 233 193051 1.11 35.69 347 36.55 36.55 12682.85 463558.1675
28	912872 11206 233 193051 1.11 35.69 347 -1.4872877092465 1.4631892511119 26.090770260487 345.19624723137
29	924078 11182 233 193051 1.11 35.69 347 -1.5233934275451 1.524149205505 26.336078201669 500.15518047166
30	935260 483 5169 189213 2 35 34 1 1 34 34
31	935743 688 5169 189213 2 35 34 0.023296 0.02625 0.889546 0.023281766116
32	936431 483 5169 189213 2 35 34 0 0 0 0
33	936914 9338 1034 192877 1.262217137452 35.662222149349 345 1 1 345 345
34	946252 9338 1034 192877 1.262217137452 35.662222149349 345 1 1 345 345
35	955590 13793 1034 192877 1.262217137452 35.662222149349 345 0.099998737959 0.10001180978 34.500003819121 3.4500007687296
36	969383 13793 1034 192877 1.262217137452 35.662222149349 345 0.099998737959 0.10001180978 34.500003819121 3.4500007687296
