file 1031248 1501597562                                         
version 2
run SinusoidalJammingDetail-143-20170801-16:25:41-47274
attr CACCSpacing 13
attr attackAcc -30
attr attackPos 7
attr attackSpeed 150
attr attackStart 32
attr attacker 1
attr beaconInterval 0.1
attr configname SinusoidalJammingDetail
attr controller 1
attr datetime 20170801-16:25:41
attr experiment SinusoidalJammingDetail
attr fakeAcc "(1 == 4)"
attr fakePos "(1 == 2)"
attr fakeSpeed "(1 == 3)"
attr inifile omnetpp_143.ini
attr iterationvars "$leaderSpeed=50, $controller=1, $CACCSpacing=13, $sController=\"CACC\", $attacker=1, $attackStart=32, $attackSpeed=150, $attackPos=7, $attackAcc=-30, $0=13, $1=0, $nCars=8, $platoonSize=8, $nLanes=1, $beaconInterval=0.1, $priority=2, $packetSize=200, $ploegH=0.5, $leaderHeadway=1.2, $fakeSpeed=(1 == 3), $fakeAcc=(1 == 4), $fakePos=(1 == 2)"
attr iterationvarsf leaderSpeed=50,controller=1,CACCSpacing=13,sController=CACC,attacker=1,attackStart=32,attackSpeed=150,attackPos=7,attackAcc=-30,13,0,nCars=8,platoonSize=8,nLanes=1,beaconInterval=0.1,priority=2,packetSize=200,ploegH=0.5,leaderHeadway=1.2,fakeSpeed=(1_==_3),fakeAcc=(1_==_4),fakePos=(1_==_2)-
attr leaderHeadway 1.2
attr leaderSpeed 50
attr measurement "$leaderSpeed=50, $controller=1, $CACCSpacing=13, $sController=\"CACC\", $attacker=1, $attackStart=32, $attackSpeed=150, $attackPos=7, $attackAcc=-30, $0=13, $1=0, $nCars=8, $platoonSize=8, $nLanes=1, $beaconInterval=0.1, $priority=2, $packetSize=200, $ploegH=0.5, $leaderHeadway=1.2, $fakeSpeed=(1 == 3), $fakeAcc=(1 == 4), $fakePos=(1 == 2)"
attr nCars 8
attr nLanes 1
attr network scenario
attr packetSize 200
attr platoonSize 8
attr ploegH 0.5
attr priority 2
attr processid 47274
attr repetition 3
attr replication #3
attr resultdir results
attr runnumber 143
attr sController "\"CACC\""
attr seedset 3
param **.coreDebug false
param **.debug false
param **.headway 0.1s
param **.numberOfCars 8
param **.numberOfCarsPerPlatoon 8
param **.numberOfLanes 1
param **.numericController 1
param **.traffic.nCars 8
param **.traffic.nLanes 1
param **.traffic.platoonInsertDistance 13m
param **.traffic.platoonInsertHeadway 0s
param **.traffic.platoonInsertSpeed 50kmph
param **.traffic.platoonInsertTime "1 s"
param **.traffic.platoonLeaderHeadway 1.2s
param **.traffic.platoonSize 8
param **.traffic.platooningVType "\"vtypeauto\""
param **.traffic_type "\"PlatoonsTrafficManager\""
param *.**.nic.mac1609_4.bitrate 6Mbps
param *.**.nic.mac1609_4.txPower 100mW
param *.**.nic.mac1609_4.useServiceChannel false
param *.**.nic.phy80211p.analogueModels "xmldoc(\"config.xml\")"
param *.**.nic.phy80211p.decider "xmldoc(\"config.xml\")"
param *.**.nic.phy80211p.maxTXPower 100mW
param *.**.nic.phy80211p.sensitivity -94dBm
param *.**.nic.phy80211p.thermalNoise -95dBm
param *.**.nic.phy80211p.usePropagationDelay true
param *.**.nic.phy80211p.useThermalNoise true
param *.annotations.draw false
param *.connectionManager.alpha 2.0
param *.connectionManager.carrierFrequency "5.890e9 Hz"
param *.connectionManager.pMax 100mW
param *.connectionManager.sat -94dBm
param *.connectionManager.sendDirect true
param *.manager.autoShutdown true
param *.manager.commandLine "\"sumo --remote-port $port --seed $seed --configuration-file $configFile\""
param *.manager.configFile "\"./sumocfg/freeway.sumo.cfg\""
param *.manager.host "\"localhost\""
param *.manager.margin 25
param *.manager.moduleDisplayString "\"\""
param *.manager.moduleName "\"node\""
param *.manager.moduleType "\"Car\""
param *.manager.updateInterval 0.01s
param *.node[*].appl.attackStart 32s
param *.node[*].appl.attackerType 1
param *.node[*].appl.simulationDuration "60 s"
param *.node[*].appl_type "\"SimplePlatooningApp\""
param *.node[*].helper.nCars 8
param *.node[*].helper.nLanes 1
param *.node[*].helper.platoonSize 8
param *.node[*].helper_type "\"PositionHelper\""
param *.node[*].mobility.x 0
param *.node[*].mobility.y 0
param *.node[*].mobility.z 1.895
param *.node[*].prot.attackStart 32s
param *.node[*].prot.attackerType 1
param *.node[*].prot.attackingNode 3
param *.node[*].prot.beaconingInterval 0.1s
param *.node[*].prot.fakeAcc "(1 == 4)"
param *.node[*].prot.fakePos "(1 == 2)"
param *.node[*].prot.fakeSpeed "(1 == 3)"
param *.node[*].prot.maliciousAcc "-30 mpss"
param *.node[*].prot.maliciousSpeed 150kmph
param *.node[*].prot.packetSize 200
param *.node[*].prot.priority 2
param *.node[*].prot.shiftX "7 m"
param *.node[*].prot.useControllerAcceleration true
param *.node[*].protocol_type "\"SimplePlatooningBeaconing\""
param *.node[*].scenario.accHeadway 0.1s
param *.node[*].scenario.caccC1 0.5
param *.node[*].scenario.caccOmegaN "0.2 Hz"
param *.node[*].scenario.caccSpacing 13m
param *.node[*].scenario.caccXi 1
param *.node[*].scenario.controller "\"CACC\""
param *.node[*].scenario.engineTau "0.5 s"
param *.node[*].scenario.leaderHeadway 1.2s
param *.node[*].scenario.leaderOscillationFrequency "0.2 Hz"
param *.node[*].scenario.leaderSpeed 50kmph
param *.node[*].scenario.oscillationAmplitude "10 kmph"
param *.node[*].scenario.ploegH 0.5s
param *.node[*].scenario.ploegKd 0.7
param *.node[*].scenario.ploegKp 0.2
param *.node[*].scenario.startOscillating "5 s"
param *.node[*].scenario.useRealisticEngine false
param *.node[*].scenario_type "\"SinusoidalScenario\""
param *.node[*].unicast.packetLossRate 0
param *.obstacles.debug false
param *.playgroundSizeX 65000m
param *.playgroundSizeY 25000m
param *.playgroundSizeZ 50m
param *.world.use2D false
param *.world.useTorus false

vector 0  scenario.node[0].appl  distance  ETV
vector 1  scenario.node[0].appl  relativeSpeed  ETV
vector 2  scenario.node[0].appl  nodeId  ETV
vector 6  scenario.node[0].appl  acceleration  ETV
vector 7  scenario.node[0].appl  controllerAcceleration  ETV
vector 3  scenario.node[0].appl  speed  ETV
vector 4  scenario.node[0].appl  posx  ETV
vector 5  scenario.node[0].appl  posy  ETV
vector 22  scenario.node[1].appl  distance  ETV
vector 23  scenario.node[1].appl  relativeSpeed  ETV
vector 24  scenario.node[1].appl  nodeId  ETV
vector 28  scenario.node[1].appl  acceleration  ETV
vector 29  scenario.node[1].appl  controllerAcceleration  ETV
vector 25  scenario.node[1].appl  speed  ETV
vector 26  scenario.node[1].appl  posx  ETV
vector 27  scenario.node[1].appl  posy  ETV
vector 44  scenario.node[2].appl  distance  ETV
vector 45  scenario.node[2].appl  relativeSpeed  ETV
vector 46  scenario.node[2].appl  nodeId  ETV
vector 50  scenario.node[2].appl  acceleration  ETV
vector 51  scenario.node[2].appl  controllerAcceleration  ETV
vector 47  scenario.node[2].appl  speed  ETV
vector 48  scenario.node[2].appl  posx  ETV
vector 49  scenario.node[2].appl  posy  ETV
vector 66  scenario.node[3].appl  distance  ETV
vector 67  scenario.node[3].appl  relativeSpeed  ETV
vector 68  scenario.node[3].appl  nodeId  ETV
vector 72  scenario.node[3].appl  acceleration  ETV
vector 73  scenario.node[3].appl  controllerAcceleration  ETV
vector 69  scenario.node[3].appl  speed  ETV
vector 70  scenario.node[3].appl  posx  ETV
vector 71  scenario.node[3].appl  posy  ETV
vector 88  scenario.node[4].appl  distance  ETV
vector 89  scenario.node[4].appl  relativeSpeed  ETV
vector 90  scenario.node[4].appl  nodeId  ETV
vector 94  scenario.node[4].appl  acceleration  ETV
vector 95  scenario.node[4].appl  controllerAcceleration  ETV
vector 91  scenario.node[4].appl  speed  ETV
vector 92  scenario.node[4].appl  posx  ETV
vector 93  scenario.node[4].appl  posy  ETV
vector 110  scenario.node[5].appl  distance  ETV
vector 111  scenario.node[5].appl  relativeSpeed  ETV
vector 112  scenario.node[5].appl  nodeId  ETV
vector 116  scenario.node[5].appl  acceleration  ETV
vector 117  scenario.node[5].appl  controllerAcceleration  ETV
vector 113  scenario.node[5].appl  speed  ETV
vector 114  scenario.node[5].appl  posx  ETV
vector 115  scenario.node[5].appl  posy  ETV
vector 132  scenario.node[6].appl  distance  ETV
vector 133  scenario.node[6].appl  relativeSpeed  ETV
vector 134  scenario.node[6].appl  nodeId  ETV
vector 138  scenario.node[6].appl  acceleration  ETV
vector 139  scenario.node[6].appl  controllerAcceleration  ETV
vector 135  scenario.node[6].appl  speed  ETV
vector 136  scenario.node[6].appl  posx  ETV
vector 137  scenario.node[6].appl  posy  ETV
vector 154  scenario.node[7].appl  distance  ETV
vector 155  scenario.node[7].appl  relativeSpeed  ETV
vector 156  scenario.node[7].appl  nodeId  ETV
vector 160  scenario.node[7].appl  acceleration  ETV
vector 161  scenario.node[7].appl  controllerAcceleration  ETV
vector 157  scenario.node[7].appl  speed  ETV
vector 158  scenario.node[7].appl  posx  ETV
vector 159  scenario.node[7].appl  posy  ETV
vector 35  scenario.node[1].prot  leaderDelay  ETV
vector 33  scenario.node[1].prot  leaderDelayId  ETV
vector 36  scenario.node[1].prot  frontDelay  ETV
vector 34  scenario.node[1].prot  frontDelayId  ETV
vector 57  scenario.node[2].prot  leaderDelay  ETV
vector 55  scenario.node[2].prot  leaderDelayId  ETV
vector 79  scenario.node[3].prot  leaderDelay  ETV
vector 77  scenario.node[3].prot  leaderDelayId  ETV
vector 101  scenario.node[4].prot  leaderDelay  ETV
vector 99  scenario.node[4].prot  leaderDelayId  ETV
vector 123  scenario.node[5].prot  leaderDelay  ETV
vector 121  scenario.node[5].prot  leaderDelayId  ETV
vector 145  scenario.node[6].prot  leaderDelay  ETV
vector 143  scenario.node[6].prot  leaderDelayId  ETV
vector 167  scenario.node[7].prot  leaderDelay  ETV
vector 165  scenario.node[7].prot  leaderDelayId  ETV
vector 168  scenario.node[7].prot  frontDelay  ETV
vector 166  scenario.node[7].prot  frontDelayId  ETV
vector 58  scenario.node[2].prot  frontDelay  ETV
vector 56  scenario.node[2].prot  frontDelayId  ETV
vector 124  scenario.node[5].prot  frontDelay  ETV
vector 122  scenario.node[5].prot  frontDelayId  ETV
vector 80  scenario.node[3].prot  frontDelay  ETV
vector 78  scenario.node[3].prot  frontDelayId  ETV
vector 146  scenario.node[6].prot  frontDelay  ETV
vector 144  scenario.node[6].prot  frontDelayId  ETV
vector 102  scenario.node[4].prot  frontDelay  ETV
vector 100  scenario.node[4].prot  frontDelayId  ETV
vector 8  scenario.node[0].prot  nodeId  ETV
vector 9  scenario.node[0].prot  busyTime  ETV
vector 10  scenario.node[0].prot  collisions  ETV
vector 30  scenario.node[1].prot  nodeId  ETV
vector 31  scenario.node[1].prot  busyTime  ETV
vector 32  scenario.node[1].prot  collisions  ETV
vector 52  scenario.node[2].prot  nodeId  ETV
vector 53  scenario.node[2].prot  busyTime  ETV
vector 54  scenario.node[2].prot  collisions  ETV
vector 74  scenario.node[3].prot  nodeId  ETV
vector 75  scenario.node[3].prot  busyTime  ETV
vector 76  scenario.node[3].prot  collisions  ETV
vector 96  scenario.node[4].prot  nodeId  ETV
vector 97  scenario.node[4].prot  busyTime  ETV
vector 98  scenario.node[4].prot  collisions  ETV
vector 118  scenario.node[5].prot  nodeId  ETV
vector 119  scenario.node[5].prot  busyTime  ETV
vector 120  scenario.node[5].prot  collisions  ETV
vector 140  scenario.node[6].prot  nodeId  ETV
vector 141  scenario.node[6].prot  busyTime  ETV
vector 142  scenario.node[6].prot  collisions  ETV
vector 162  scenario.node[7].prot  nodeId  ETV
vector 163  scenario.node[7].prot  busyTime  ETV
vector 164  scenario.node[7].prot  collisions  ETV
7	11235 8590 232 201559 1.11 37.21 362 -1.5 1.5 16.33267074593 582.34230505052
6	19825 11357 232 201559 1.11 37.21 362 -1.472274679513 1.4513430531444 10.978975316441 396.02974094067
5	31182 7314 232 201559 1.11 37.21 362 36.55 36.55 13231.1 483596.705
4	38496 10898 232 201559 1.11 37.21 362 159.73485145556 664.57131786609 149744.30772605 69674147.2958
3	49394 10892 232 201559 1.11 37.21 362 12.59908680102 15.853603639796 5062.6301360814 71068.627190265
1	60286 5866 232 201559 1.11 37.21 362 0 0 0 0
0	66152 6228 232 201559 1.11 37.21 362 -1 -1 -362 362
2	72380 5866 232 201559 1.11 37.21 362 0 0 0 0
10	78246 513 5056 200256 2 37 36 0 0 0 0
9	78759 940 5056 200256 2 37 36 0.02276107105 0.026256281198 0.94151486955 0.024635454702098
8	79699 477 5056 200256 2 37 36 0 0 0 0
51	80176 11660 234 201561 1.11 37.21 362 -1.5293286864474 1.529386789419 36.661955413378 515.84291027399
50	91836 11731 234 201561 1.11 37.21 362 -1.4784118390457 1.4535038924445 36.331774170971 355.39198254056
49	103567 7676 234 201561 1.11 37.21 362 36.55 36.55 13231.1 483596.705
48	111243 11251 234 201561 1.11 37.21 362 125.73484382629 644.82944546177 137713.99776584 60256474.742174
47	122494 11256 234 201561 1.11 37.21 362 12.597544919064 17.524372505334 5206.1065527183 75461.149131628
45	133750 12464 234 201561 1.11 37.21 362 -0.72325430999997 0.011086179615127 -14.253663758737 6.9003013743069
44	146214 11251 234 201561 1.11 37.21 362 11.643657629659 13.036336383107 4689.8729870314 60773.368270316
46	157465 6228 234 201561 1.11 37.21 362 2 2 724 1448
58	163693 14400 1046 201260 1.299190268236 37.199194540214 360 0.09999934716 0.100012477691 36.000003746332 3.6000007516942
57	178093 14452 842 201613 1.269558587766 37.269562223097 361 0.099999344365 0.100012477161 36.100003109685 3.6100006243662
56	192545 9755 1046 201260 1.299190268236 37.199194540214 360 2 2 720 1440
55	202300 9789 842 201613 1.269558587766 37.269562223097 361 2 2 722 1444
54	212089 513 5058 200258 2 37 36 0 0 0 0
53	212602 971 5058 200258 2 37 36 0.022761184462 0.026256269443 0.941514937384 0.024635457471862
52	213573 513 5058 200258 2 37 36 2 2 72 144
73	214086 11620 235 201562 1.11 37.21 362 -1.4888807781518 1.489372980249 41.184337826149 485.71437243407
72	225706 11676 235 201562 1.11 37.21 362 -1.4638941692532 1.4373649581065 40.967057938355 352.22487278788
71	237382 7676 235 201562 1.11 37.21 362 36.55 36.55 13231.1 483596.705
70	245058 11256 235 201562 1.11 37.21 362 108.73484382629 628.52439466279 131564.94531581 55686230.42338
69	256314 11248 235 201562 1.11 37.21 362 12.612456170906 17.981427197948 5213.2176729105 75709.141180676
67	267562 12250 235 201562 1.11 37.21 362 -0.45822408878374 0.033958477812929 -7.4744379339267 2.4958321810122
66	279812 11224 235 201562 1.11 37.21 362 12.314218869616 13.069674901526 4701.1946724307 61056.361189974
68	291036 6228 235 201562 1.11 37.21 362 3 3 1086 3258
80	297264 14399 1180 201395 1.300211551766 37.2002028144 360 0.09999934653 0.100012477586 35.999990736988 3.5999981496731
79	311663 14450 848 201619 1.269558644472 37.269562277408 361 0.099999344212 0.100012477174 36.10000310729 3.6100006238872
78	326113 9752 1180 201395 1.300211551766 37.2002028144 360 3 3 1080 3240
77	335865 9798 848 201619 1.269558644472 37.269562277408 361 3 3 1083 3249
76	345663 513 5059 200259 2 37 36 0 0 0 0
75	346176 976 5059 200259 2 37 36 0.022760127756 0.026256270628 0.94151388267 0.02463540947382
74	347152 513 5059 200259 2 37 36 3 3 108 324
95	347665 11627 236 201563 1.11 37.21 362 -1.4835634000426 1.4833693126304 44.373728543961 479.83094271588
94	359292 11694 236 201563 1.11 37.21 362 -1.4536758589729 1.4275434593973 43.721217362251 349.78192862568
93	370986 7676 236 201563 1.11 37.21 362 36.55 36.55 13231.1 483596.705
92	378662 11264 236 201563 1.11 37.21 362 91.734843826294 611.90150358116 125412.98642052 51321194.306056
91	389926 11249 236 201563 1.11 37.21 362 12.623716146761 18.252470033625 5217.0844714336 75844.871211126
89	401175 12459 236 201563 1.11 37.21 362 -0.27226617431592 0.013354742014744 -4.2764691024216 0.75233721583193
88	413634 11220 236 201563 1.11 37.21 362 12.628311938338 13.033797209984 4704.0362312635 61127.838061652
90	424854 6228 236 201563 1.11 37.21 362 4 4 1448 5792
102	431082 14754 1312 201527 1.306029835296 37.206047092785 360 0.099908472771 0.100090474354 35.999951731843 3.5999909704375
101	445836 14784 854 201625 1.269558701178 37.26956233281 361 0.099999344121 0.100012477181 36.100003105986 3.6100006236264
100	460620 10115 1312 201527 1.306029835296 37.206047092785 360 4 4 1440 5760
99	470735 9775 854 201625 1.269558701178 37.26956233281 361 4 4 1444 5776
98	480510 513 5060 200260 2 37 36 0 0 0 0
97	481023 975 5060 200260 2 37 36 0.02276107105 0.026256271291 0.94151482703 0.024635452469668
96	481998 513 5060 200260 2 37 36 4 4 144 576
117	482511 12036 237 201564 1.11 37.21 362 -1.5014800984245 1.5049214151124 47.515618698448 501.15437472498
116	494547 12078 237 201564 1.11 37.21 362 -1.4472992647201 1.4222211890525 45.324517414551 348.29388494573
115	506625 8038 237 201564 1.11 37.21 362 36.55 36.55 13231.1 483596.705
114	514663 11615 237 201564 1.11 37.21 362 74.734847640991 595.11484279645 119259.91146923 47163765.91953
113	526278 11616 237 201564 1.11 37.21 362 12.629833374517 18.40852702137 5219.2729233088 75921.390324804
111	537894 12676 237 201564 1.11 37.21 362 -0.1583247211895 0.019160675816295 -2.62566404884 0.27795893339768
110	550570 11626 237 201564 1.11 37.21 362 12.78978192447 13.018761487717 4705.1187203239 61155.379159134
112	562196 6590 237 201564 1.11 37.21 362 5 5 1810 9050
124	568786 14770 1112 201326 1.299603438354 37.199594706103 360 0.09999934687 0.100012476584 36.000003742103 3.6000007508506
123	583556 14810 860 201631 1.269558757883 37.269562388778 361 0.099999344069 0.100012477183 36.100003105249 3.610000623479
122	598366 10122 1112 201326 1.299603438354 37.199594706103 360 5 5 1800 9000
121	608488 10148 860 201631 1.269558757883 37.269562388778 361 5 5 1805 9025
120	618636 549 5061 200261 2 37 36 0 0 0 0
119	619185 1012 5061 200261 2 37 36 0.022760014344 0.026256271654 0.941513770926 0.024635404398871
118	620197 549 5061 200261 2 37 36 5 5 180 900
139	620746 11995 238 201565 1.11 37.21 362 -1.4833385384106 1.4846827488109 47.385131704486 485.48115548671
138	632741 12060 238 201565 1.11 37.21 362 -1.4512379330229 1.4281947028916 46.260601923142 353.3135112972
137	644801 8038 238 201565 1.11 37.21 362 36.55 36.55 13231.1 483596.705
136	652839 11616 238 201565 1.11 37.21 362 57.734845733643 578.32454233138 113108.8228495 43217246.560536
135	664455 11614 238 201565 1.11 37.21 362 12.619584629295 18.50169259956 5221.4029760376 75997.525892466
133	676069 12649 238 201565 1.11 37.21 362 -0.096146841070219 0.046328283209462 -2.5832979029919 0.37741489088672
132	688718 11616 238 201565 1.11 37.21 362 12.792163776633 13.037558466196 4703.1312207887 61104.012672196
134	700334 6590 238 201565 1.11 37.21 362 6 6 2172 13032
146	706924 14767 1249 201464 1.305616721884 37.205607981881 360 0.099999346361 0.100012476888 35.999990734351 3.599998149145
145	721691 14806 866 201637 1.269558814589 37.269562444768 361 0.099999344037 0.100012477176 36.100003104533 3.6100006233358
144	736497 10119 1249 201464 1.305616721884 37.205607981881 360 6 6 2160 12960
143	746616 10140 866 201637 1.269558814589 37.269562444768 361 6 6 2166 12996
142	756756 549 5062 200262 2 37 36 0 0 0 0
141	757305 1011 5062 200262 2 37 36 0.022760957638 0.026256271879 0.941514714854 0.02463544737181
140	758316 549 5062 200262 2 37 36 6 6 216 1296
161	758865 12036 239 201566 1.11 37.21 362 -1.5021746509422 1.5049027816156 49.44682151915 506.82593552559
160	770901 12092 239 201566 1.11 37.21 362 -1.4497273263567 1.4256029938949 46.829505591348 352.23514806616
159	782993 8038 239 201566 1.11 37.21 362 36.55 36.55 13231.1 483596.705
158	791031 11612 239 201566 1.11 37.21 362 40.734846687317 561.35595206082 106952.90755552 39474866.989131
157	802643 11625 239 201566 1.11 37.21 362 12.624110618691 18.555862856166 5221.7361670584 76010.210875803
155	814268 12953 239 201566 1.11 37.21 362 -0.057560398806867 0.0045408729792502 -0.79579704000127 0.029135009796423
154	827221 11614 239 201566 1.11 37.21 362 12.969673675693 13.02808088949 4707.9219578018 61228.015486795
156	838835 6590 239 201566 1.11 37.21 362 7 7 2534 17738
168	845425 14770 980 201194 1.292107984707 37.192099270554 360 0.09999934794 0.100012477204 35.999990760201 3.5999981543152
167	860195 14794 872 201643 1.269558871295 37.26956250136 361 0.099999344019 0.10001247718 36.100003104419 3.610000623313
166	874989 10129 980 201194 1.292107984707 37.192099270554 360 7 7 2520 17640
165	885118 10139 872 201643 1.269558871295 37.26956250136 361 7 7 2527 17689
164	895257 549 5063 200263 2 37 36 0 0 0 0
163	895806 1011 5063 200263 2 37 36 0.022760900933 0.026256271995 0.941514658216 0.024635444794016
162	896817 549 5063 200263 2 37 36 7 7 252 1764
22	897366 11263 233 201713 1.11 37.28 363 0 13.129159477971 4447.3065015097 56820.637098405
23	908629 12222 233 201713 1.11 37.28 363 -4.3007391532375 0.08549251396219 -131.39531315423 434.77521820174
24	920851 6246 233 201713 1.11 37.28 363 1 1 363 363
25	927097 11289 233 201713 1.11 37.28 363 12.591606574386 16.951165871483 5208.9281925343 75266.661909443
26	938386 11284 233 201713 1.11 37.28 363 142.73484382629 661.63381747064 144513.225301 65458987.584084
27	949670 7698 233 201713 1.11 37.28 363 36.55 36.55 13267.65 484932.6075
28	957368 11748 233 201713 1.11 37.28 363 -1.487287757606 1.4632119865462 28.834266734371 354.4361266251
29	969116 11710 233 201713 1.11 37.28 363 -1.5233934358881 1.5241491618581 28.102240723181 510.33757020176
30	980826 513 5057 200257 2 37 36 1 1 36 36
31	981339 976 5057 200257 2 37 36 0.022761127756 0.026256271428 0.94151488473 0.024635455103226
32	982315 513 5057 200257 2 37 36 0 0 0 0
33	982828 9775 836 201607 1.26955853106 37.269562171086 361 1 1 361 361
34	992603 9775 836 201607 1.26955853106 37.269562171086 361 1 1 361 361
35	1002378 14435 836 201607 1.26955853106 37.269562171086 361 0.099999344608 0.100012477155 36.10000311438 3.6100006253052
36	1016813 14435 836 201607 1.26955853106 37.269562171086 361 0.099999344608 0.100012477155 36.10000311438 3.6100006253052
