version 2
run SinusoidalJammingDetail-331-20170801-17:12:07-24294
attr CACCSpacing 7
attr attackAcc -30
attr attackPos 7
attr attackSpeed 150
attr attackStart 30
attr attacker 1
attr beaconInterval 0.1
attr configname SinusoidalJammingDetail
attr controller 1
attr datetime 20170801-17:12:07
attr experiment SinusoidalJammingDetail
attr fakeAcc "(1 == 4)"
attr fakePos "(1 == 2)"
attr fakeSpeed "(1 == 3)"
attr inifile omnetpp_331.ini
attr iterationvars "$leaderSpeed=100, $controller=1, $CACCSpacing=7, $sController=\"CACC\", $attacker=1, $attackStart=30, $attackSpeed=150, $attackPos=7, $attackAcc=-30, $0=7, $1=0, $nCars=8, $platoonSize=8, $nLanes=1, $beaconInterval=0.1, $priority=2, $packetSize=200, $ploegH=0.5, $leaderHeadway=1.2, $fakeSpeed=(1 == 3), $fakeAcc=(1 == 4), $fakePos=(1 == 2)"
attr iterationvarsf leaderSpeed=100,controller=1,CACCSpacing=7,sController=CACC,attacker=1,attackStart=30,attackSpeed=150,attackPos=7,attackAcc=-30,7,0,nCars=8,platoonSize=8,nLanes=1,beaconInterval=0.1,priority=2,packetSize=200,ploegH=0.5,leaderHeadway=1.2,fakeSpeed=(1_==_3),fakeAcc=(1_==_4),fakePos=(1_==_2)-
attr leaderHeadway 1.2
attr leaderSpeed 100
attr measurement "$leaderSpeed=100, $controller=1, $CACCSpacing=7, $sController=\"CACC\", $attacker=1, $attackStart=30, $attackSpeed=150, $attackPos=7, $attackAcc=-30, $0=7, $1=0, $nCars=8, $platoonSize=8, $nLanes=1, $beaconInterval=0.1, $priority=2, $packetSize=200, $ploegH=0.5, $leaderHeadway=1.2, $fakeSpeed=(1 == 3), $fakeAcc=(1 == 4), $fakePos=(1 == 2)"
attr nCars 8
attr nLanes 1
attr network scenario
attr packetSize 200
attr platoonSize 8
attr ploegH 0.5
attr priority 2
attr processid 24294
attr repetition 1
attr replication #1
attr resultdir results
attr runnumber 331
attr sController "\"CACC\""
attr seedset 1
param **.coreDebug false
param **.debug false
param **.headway 0.1s
param **.numberOfCars 8
param **.numberOfCarsPerPlatoon 8
param **.numberOfLanes 1
param **.numericController 1
param **.traffic.nCars 8
param **.traffic.nLanes 1
param **.traffic.platoonInsertDistance 7m
param **.traffic.platoonInsertHeadway 0s
param **.traffic.platoonInsertSpeed 100kmph
param **.traffic.platoonInsertTime "1 s"
param **.traffic.platoonLeaderHeadway 1.2s
param **.traffic.platoonSize 8
param **.traffic.platooningVType "\"vtypeauto\""
param **.traffic_type "\"PlatoonsTrafficManager\""
param *.**.nic.mac1609_4.bitrate 6Mbps
param *.**.nic.mac1609_4.txPower 100mW
param *.**.nic.mac1609_4.useServiceChannel false
param *.**.nic.phy80211p.analogueModels "xmldoc(\"config.xml\")"
param *.**.nic.phy80211p.decider "xmldoc(\"config.xml\")"
param *.**.nic.phy80211p.maxTXPower 100mW
param *.**.nic.phy80211p.sensitivity -94dBm
param *.**.nic.phy80211p.thermalNoise -95dBm
param *.**.nic.phy80211p.usePropagationDelay true
param *.**.nic.phy80211p.useThermalNoise true
param *.annotations.draw false
param *.connectionManager.alpha 2.0
param *.connectionManager.carrierFrequency "5.890e9 Hz"
param *.connectionManager.pMax 100mW
param *.connectionManager.sat -94dBm
param *.connectionManager.sendDirect true
param *.manager.autoShutdown true
param *.manager.commandLine "\"sumo --remote-port $port --seed $seed --configuration-file $configFile\""
param *.manager.configFile "\"./sumocfg/freeway.sumo.cfg\""
param *.manager.host "\"localhost\""
param *.manager.margin 25
param *.manager.moduleDisplayString "\"\""
param *.manager.moduleName "\"node\""
param *.manager.moduleType "\"Car\""
param *.manager.updateInterval 0.01s
param *.node[*].appl.attackStart 30s
param *.node[*].appl.attackerType 1
param *.node[*].appl.simulationDuration "60 s"
param *.node[*].appl_type "\"SimplePlatooningApp\""
param *.node[*].helper.nCars 8
param *.node[*].helper.nLanes 1
param *.node[*].helper.platoonSize 8
param *.node[*].helper_type "\"PositionHelper\""
param *.node[*].mobility.x 0
param *.node[*].mobility.y 0
param *.node[*].mobility.z 1.895
param *.node[*].prot.attackStart 30s
param *.node[*].prot.attackerType 1
param *.node[*].prot.attackingNode 3
param *.node[*].prot.beaconingInterval 0.1s
param *.node[*].prot.fakeAcc "(1 == 4)"
param *.node[*].prot.fakePos "(1 == 2)"
param *.node[*].prot.fakeSpeed "(1 == 3)"
param *.node[*].prot.maliciousAcc "-30 mpss"
param *.node[*].prot.maliciousSpeed 150kmph
param *.node[*].prot.packetSize 200
param *.node[*].prot.priority 2
param *.node[*].prot.shiftX "7 m"
param *.node[*].prot.useControllerAcceleration true
param *.node[*].protocol_type "\"SimplePlatooningBeaconing\""
param *.node[*].scenario.accHeadway 0.1s
param *.node[*].scenario.caccC1 0.5
param *.node[*].scenario.caccOmegaN "0.2 Hz"
param *.node[*].scenario.caccSpacing 7m
param *.node[*].scenario.caccXi 1
param *.node[*].scenario.controller "\"CACC\""
param *.node[*].scenario.engineTau "0.5 s"
param *.node[*].scenario.leaderHeadway 1.2s
param *.node[*].scenario.leaderOscillationFrequency "0.2 Hz"
param *.node[*].scenario.leaderSpeed 100kmph
param *.node[*].scenario.oscillationAmplitude "10 kmph"
param *.node[*].scenario.ploegH 0.5s
param *.node[*].scenario.ploegKd 0.7
param *.node[*].scenario.ploegKp 0.2
param *.node[*].scenario.startOscillating "5 s"
param *.node[*].scenario.useRealisticEngine false
param *.node[*].scenario_type "\"SinusoidalScenario\""
param *.node[*].unicast.packetLossRate 0
param *.obstacles.debug false
param *.playgroundSizeX 65000m
param *.playgroundSizeY 25000m
param *.playgroundSizeZ 50m
param *.world.use2D false
param *.world.useTorus false

vector 0  scenario.node[0].appl  distance  ETV
vector 1  scenario.node[0].appl  relativeSpeed  ETV
vector 2  scenario.node[0].appl  nodeId  ETV
vector 6  scenario.node[0].appl  acceleration  ETV
vector 7  scenario.node[0].appl  controllerAcceleration  ETV
vector 3  scenario.node[0].appl  speed  ETV
vector 4  scenario.node[0].appl  posx  ETV
vector 5  scenario.node[0].appl  posy  ETV
vector 22  scenario.node[1].appl  distance  ETV
vector 23  scenario.node[1].appl  relativeSpeed  ETV
vector 24  scenario.node[1].appl  nodeId  ETV
vector 28  scenario.node[1].appl  acceleration  ETV
vector 29  scenario.node[1].appl  controllerAcceleration  ETV
vector 25  scenario.node[1].appl  speed  ETV
vector 26  scenario.node[1].appl  posx  ETV
vector 27  scenario.node[1].appl  posy  ETV
vector 44  scenario.node[2].appl  distance  ETV
vector 45  scenario.node[2].appl  relativeSpeed  ETV
vector 46  scenario.node[2].appl  nodeId  ETV
vector 50  scenario.node[2].appl  acceleration  ETV
vector 51  scenario.node[2].appl  controllerAcceleration  ETV
vector 47  scenario.node[2].appl  speed  ETV
vector 48  scenario.node[2].appl  posx  ETV
vector 49  scenario.node[2].appl  posy  ETV
vector 66  scenario.node[3].appl  distance  ETV
vector 67  scenario.node[3].appl  relativeSpeed  ETV
vector 68  scenario.node[3].appl  nodeId  ETV
vector 72  scenario.node[3].appl  acceleration  ETV
vector 73  scenario.node[3].appl  controllerAcceleration  ETV
vector 69  scenario.node[3].appl  speed  ETV
vector 70  scenario.node[3].appl  posx  ETV
vector 71  scenario.node[3].appl  posy  ETV
vector 88  scenario.node[4].appl  distance  ETV
vector 89  scenario.node[4].appl  relativeSpeed  ETV
vector 90  scenario.node[4].appl  nodeId  ETV
vector 94  scenario.node[4].appl  acceleration  ETV
vector 95  scenario.node[4].appl  controllerAcceleration  ETV
vector 91  scenario.node[4].appl  speed  ETV
vector 92  scenario.node[4].appl  posx  ETV
vector 93  scenario.node[4].appl  posy  ETV
vector 110  scenario.node[5].appl  distance  ETV
vector 111  scenario.node[5].appl  relativeSpeed  ETV
vector 112  scenario.node[5].appl  nodeId  ETV
vector 116  scenario.node[5].appl  acceleration  ETV
vector 117  scenario.node[5].appl  controllerAcceleration  ETV
vector 113  scenario.node[5].appl  speed  ETV
vector 114  scenario.node[5].appl  posx  ETV
vector 115  scenario.node[5].appl  posy  ETV
vector 132  scenario.node[6].appl  distance  ETV
vector 133  scenario.node[6].appl  relativeSpeed  ETV
vector 134  scenario.node[6].appl  nodeId  ETV
vector 138  scenario.node[6].appl  acceleration  ETV
vector 139  scenario.node[6].appl  controllerAcceleration  ETV
vector 135  scenario.node[6].appl  speed  ETV
vector 136  scenario.node[6].appl  posx  ETV
vector 137  scenario.node[6].appl  posy  ETV
vector 154  scenario.node[7].appl  distance  ETV
vector 155  scenario.node[7].appl  relativeSpeed  ETV
vector 156  scenario.node[7].appl  nodeId  ETV
vector 160  scenario.node[7].appl  acceleration  ETV
vector 161  scenario.node[7].appl  controllerAcceleration  ETV
vector 157  scenario.node[7].appl  speed  ETV
vector 158  scenario.node[7].appl  posx  ETV
vector 159  scenario.node[7].appl  posy  ETV
vector 58  scenario.node[2].prot  frontDelay  ETV
vector 56  scenario.node[2].prot  frontDelayId  ETV
vector 102  scenario.node[4].prot  frontDelay  ETV
vector 100  scenario.node[4].prot  frontDelayId  ETV
vector 146  scenario.node[6].prot  frontDelay  ETV
vector 144  scenario.node[6].prot  frontDelayId  ETV
vector 168  scenario.node[7].prot  frontDelay  ETV
vector 166  scenario.node[7].prot  frontDelayId  ETV
vector 124  scenario.node[5].prot  frontDelay  ETV
vector 122  scenario.node[5].prot  frontDelayId  ETV
vector 35  scenario.node[1].prot  leaderDelay  ETV
vector 33  scenario.node[1].prot  leaderDelayId  ETV
vector 36  scenario.node[1].prot  frontDelay  ETV
vector 34  scenario.node[1].prot  frontDelayId  ETV
vector 57  scenario.node[2].prot  leaderDelay  ETV
vector 55  scenario.node[2].prot  leaderDelayId  ETV
vector 79  scenario.node[3].prot  leaderDelay  ETV
vector 77  scenario.node[3].prot  leaderDelayId  ETV
vector 101  scenario.node[4].prot  leaderDelay  ETV
vector 99  scenario.node[4].prot  leaderDelayId  ETV
vector 123  scenario.node[5].prot  leaderDelay  ETV
vector 121  scenario.node[5].prot  leaderDelayId  ETV
vector 145  scenario.node[6].prot  leaderDelay  ETV
vector 143  scenario.node[6].prot  leaderDelayId  ETV
vector 167  scenario.node[7].prot  leaderDelay  ETV
vector 165  scenario.node[7].prot  leaderDelayId  ETV
vector 80  scenario.node[3].prot  frontDelay  ETV
vector 78  scenario.node[3].prot  frontDelayId  ETV
vector 8  scenario.node[0].prot  nodeId  ETV
vector 9  scenario.node[0].prot  busyTime  ETV
vector 10  scenario.node[0].prot  collisions  ETV
vector 30  scenario.node[1].prot  nodeId  ETV
vector 31  scenario.node[1].prot  busyTime  ETV
vector 32  scenario.node[1].prot  collisions  ETV
vector 52  scenario.node[2].prot  nodeId  ETV
vector 53  scenario.node[2].prot  busyTime  ETV
vector 54  scenario.node[2].prot  collisions  ETV
vector 74  scenario.node[3].prot  nodeId  ETV
vector 75  scenario.node[3].prot  busyTime  ETV
vector 76  scenario.node[3].prot  collisions  ETV
vector 96  scenario.node[4].prot  nodeId  ETV
vector 97  scenario.node[4].prot  busyTime  ETV
vector 98  scenario.node[4].prot  collisions  ETV
vector 118  scenario.node[5].prot  nodeId  ETV
vector 119  scenario.node[5].prot  busyTime  ETV
vector 120  scenario.node[5].prot  collisions  ETV
vector 140  scenario.node[6].prot  nodeId  ETV
vector 141  scenario.node[6].prot  busyTime  ETV
vector 142  scenario.node[6].prot  collisions  ETV
vector 162  scenario.node[7].prot  nodeId  ETV
vector 163  scenario.node[7].prot  busyTime  ETV
vector 164  scenario.node[7].prot  collisions  ETV
7	232	1.11	-8.430731206488e-07
7	788	1.21	-8.247038785214e-07
7	1344	1.31	-7.948429328053e-07
7	1900	1.41	-7.5609037608615e-07
7	2456	1.51	-7.1073863239235e-07
7	3012	1.61	-6.6078666094427e-07
7	3568	1.71	-6.079568990458e-07
7	4124	1.81	-5.5371389606762e-07
7	4680	1.91	-4.9928438983216e-07
7	5244	2.01	-4.4567811841034e-07
7	5800	2.11	-3.9370868165634e-07
7	6356	2.21	-3.4401411852514e-07
7	6912	2.31	-2.9707706872273e-07
7	7468	2.41	-2.5324398578164e-07
7	8024	2.51	-2.1274344064182e-07
7	8580	2.61	-1.7570315336002e-07
7	9136	2.71	-1.4216582755466e-07
7	9692	2.81	-1.1210364547765e-07
7	10248	2.91	-8.5431519636359e-08
7	10812	3.01	-6.2018816748832e-08
7	11368	3.11	-4.1699859565369e-08
7	11924	3.21	-2.4283316690799e-08
7	12480	3.31	-9.5601571103998e-09
7	13036	3.41	2.6894362292751e-09
7	13592	3.51	1.2690140493987e-08
7	14148	3.61	2.0666576006079e-08
7	14704	3.71	2.6839355626862e-08
7	15260	3.81	3.1421798496467e-08
7	15816	3.91	3.4617407607129e-08
7	16380	4.01	3.6617997523081e-08
7	16936	4.11	3.7602347902066e-08
7	17492	4.21	3.7735404134764e-08
7	18048	4.31	3.7167730226884e-08
7	18604	4.41	3.6035434192172e-08
7	19160	4.51	3.446024621212e-08
7	19716	4.61	3.2549973383311e-08
7	20272	4.71	3.0399071704323e-08
7	20828	4.81	2.8089345960325e-08
7	21384	4.91	2.5690727767369e-08
7	21949	5.01	2.326218861981e-08
7	22506	5.11	0.34814789186464
7	23063	5.21	0.68726937161622
7	23620	5.31	1.0064706311115
7	24177	5.41	1.2963311698934
7	24734	5.51	1.5
7	25291	5.61	1.5
7	25848	5.71	1.5
7	26405	5.81	1.5
7	26962	5.91	1.5
7	27527	6.01	1.5
7	28084	6.11	1.5
7	28641	6.21	1.5
7	29198	6.31	1.5
7	29755	6.41	1.5
7	30312	6.51	1.4919234148491
7	30869	6.61	1.226499329248
7	31426	6.71	0.92305384082895
7	31983	6.81	0.58908102066068
7	32540	6.91	0.2323562172788
7	33105	7.01	-0.13919559696193
7	33662	7.11	-0.51762846464532
7	34219	7.21	-0.89509993840359
7	34776	7.31	-1.2639902875456
7	35333	7.41	-1.5
7	35890	7.51	-1.5
7	36447	7.61	-1.5
7	37004	7.71	-1.5
7	37561	7.81	-1.5
7	38118	7.91	-1.5
7	38683	8.01	-1.5
7	39240	8.11	-1.5
7	39797	8.21	-1.5
7	40354	8.31	-1.5
7	40911	8.41	-1.5
7	41468	8.51	-1.5
7	42025	8.61	-1.5
7	42582	8.71	-1.5
7	43139	8.81	-1.5
7	43696	8.91	-1.5
7	44261	9.01	-1.5
7	44818	9.11	-1.5
7	45375	9.21	-1.5
7	45932	9.31	-1.5
7	46489	9.41	-1.5
7	47046	9.51	-1.1784535904302
7	47603	9.61	-0.73985166419522
7	48160	9.71	-0.29046662059022
7	48717	9.81	0.15868205669937
7	49274	9.91	0.59737147691163
7	49839	10.01	1.0162504341895
7	50396	10.11	1.4069035498921
7	50953	10.21	1.5
7	51510	10.31	1.5
7	52067	10.41	1.5
7	52624	10.51	1.5
7	53181	10.61	1.5
7	53738	10.71	1.5
7	54295	10.81	1.5
7	54852	10.91	1.5
7	55417	11.01	1.5
7	55974	11.11	1.5
7	56531	11.21	1.5
7	57088	11.31	1.5
7	57645	11.41	1.5
7	58202	11.51	1.5
7	58759	11.61	1.5
7	59316	11.71	1.5
7	59873	11.81	1.5
7	60430	11.91	1.142056952341
7	60995	12.01	0.73271074174567
7	61552	12.11	0.30763491703603
7	62109	12.21	-0.1229018340005
7	62666	12.31	-0.54917422864573
7	63223	12.41	-0.96209331715876
7	63780	12.51	-1.353290027524
7	64337	12.61	-1.5
7	64894	12.71	-1.5
7	65451	12.81	-1.5
7	66008	12.91	-1.5
7	66573	13.01	-1.5
7	67130	13.11	-1.5
7	67687	13.21	-1.5
7	68244	13.31	-1.5
7	68801	13.41	-1.5
7	69358	13.51	-1.5
7	69915	13.61	-1.5
7	70472	13.71	-1.5
7	71029	13.81	-1.5
7	71586	13.91	-1.5
7	72151	14.01	-1.5
7	72708	14.11	-1.5
7	73265	14.21	-1.5
7	73822	14.31	-1.5
7	74379	14.41	-1.3008305793136
7	74936	14.51	-0.8883573602082
7	75493	14.61	-0.45792464374534
7	76050	14.71	-0.020297800477731
7	76607	14.81	0.41435934757689
7	77164	14.91	0.83657487484984
7	77729	15.01	1.2376491838973
7	78286	15.11	1.5
7	78843	15.21	1.5
7	79400	15.31	1.5
7	79957	15.41	1.5
7	80514	15.51	1.5
7	81071	15.61	1.5
7	81628	15.71	1.5
7	82185	15.81	1.5
7	82742	15.91	1.5
7	83307	16.01	1.5
7	83864	16.11	1.5
7	84421	16.21	1.5
7	84978	16.31	1.5
7	85535	16.41	1.5
7	86092	16.51	1.5
7	86649	16.61	1.5
7	87206	16.71	1.5
7	87763	16.81	1.5
7	88320	16.91	1.2451238477401
7	88885	17.01	0.83347870135556
7	89442	17.11	0.40470958877082
7	89999	17.21	-0.03059806221717
7	90556	17.31	-0.46243980386486
7	91113	17.41	-0.8814833530446
7	91670	17.51	-1.2791500631707
7	92227	17.61	-1.5
7	92784	17.71	-1.5
7	93341	17.81	-1.5
7	93898	17.91	-1.5
7	94463	18.01	-1.5
7	95020	18.11	-1.5
7	95577	18.21	-1.5
7	96134	18.31	-1.5
7	96691	18.41	-1.5
7	97248	18.51	-1.5
7	97805	18.61	-1.5
7	98362	18.71	-1.5
7	98919	18.81	-1.5
7	99476	18.91	-1.5
7	100041	19.01	-1.5
7	100598	19.11	-1.5
7	101155	19.21	-1.5
7	101712	19.31	-1.5
7	102269	19.41	-1.2657245815118
7	102826	19.51	-0.85377693481412
7	103383	19.61	-0.42439560037995
7	103940	19.71	0.011767371269134
7	104497	19.81	0.44464851836491
7	105054	19.91	0.86486384400621
7	105619	20.01	1.2637899041136
7	106176	20.11	1.5
7	106733	20.21	1.5
7	107290	20.31	1.5
7	107847	20.41	1.5
7	108404	20.51	1.5
7	108961	20.61	1.5
7	109518	20.71	1.5
7	110075	20.81	1.5
7	110632	20.91	1.5
7	111197	21.01	1.5
7	111754	21.11	1.5
7	112311	21.21	1.5
7	112868	21.31	1.5
7	113425	21.41	1.5
7	113982	21.51	1.5
7	114539	21.61	1.5
7	115096	21.71	1.5
7	115653	21.81	1.5
7	116210	21.91	1.258091551777
7	116775	22.01	0.8462549163489
7	117332	22.11	0.41709956367568
7	117889	22.21	-0.018747163542116
7	118446	22.31	-0.45124369149361
7	119003	22.41	-0.87102520538537
7	119560	22.51	-1.2694848794591
7	120117	22.61	-1.5
7	120674	22.71	-1.5
7	121231	22.81	-1.5
7	121788	22.91	-1.5
7	122353	23.01	-1.5
7	122910	23.11	-1.5
7	123467	23.21	-1.5
7	124024	23.31	-1.5
7	124581	23.41	-1.5
7	125138	23.51	-1.5
7	125695	23.61	-1.5
7	126252	23.71	-1.5
7	126809	23.81	-1.5
7	127366	23.91	-1.5
7	127931	24.01	-1.5
7	128488	24.11	-1.5
7	129045	24.21	-1.5
7	129602	24.31	-1.5
7	130159	24.41	-1.2609239651112
7	130716	24.51	-0.8490461568448
7	131273	24.61	-0.41980696481052
7	131830	24.71	0.016157099446737
7	132387	24.81	0.44879633966076
7	132944	24.91	0.86873882266934
7	133509	25.01	1.26737155572
7	134066	25.11	1.5
7	134623	25.21	1.5
7	135180	25.31	1.5
7	135737	25.41	1.5
7	136294	25.51	1.5
7	136851	25.61	1.5
7	137408	25.71	1.5
7	137965	25.81	1.5
7	138522	25.91	1.5
7	139087	26.01	1.5
7	139644	26.11	1.5
7	140201	26.21	1.5
7	140758	26.31	1.5
7	141315	26.41	1.5
7	141872	26.51	1.5
7	142429	26.61	1.5
7	142986	26.71	1.5
7	143543	26.81	1.5
7	144100	26.91	1.2598728518634
7	144665	27.01	0.84801032251441
7	145222	27.11	0.41880224309152
7	145779	27.21	-0.017118277441824
7	146336	27.31	-0.44970455708397
7	146893	27.41	-0.86958730431876
7	147450	27.51	-1.2681558149826
7	148007	27.61	-1.5
7	148564	27.71	-1.5
7	149121	27.81	-1.5
7	149678	27.91	-1.5
7	150243	28.01	-1.5
7	150800	28.11	-1.5
7	151357	28.21	-1.5
7	151914	28.31	-1.5
7	152471	28.41	-1.5
7	153028	28.51	-1.5
7	153585	28.61	-1.5
7	154142	28.71	-1.5
7	154699	28.81	-1.5
7	155256	28.91	-1.5
7	155821	29.01	-1.5
7	156378	29.11	-1.5
7	156935	29.21	-1.5
7	157492	29.31	-1.5
7	158049	29.41	-1.2602629232513
7	158606	29.51	-0.84839472385599
7	159163	29.61	-0.41917509845245
7	159720	29.71	0.016761581287305
7	160277	29.81	0.44936751475852
7	160834	29.91	0.86927243012183
7	161399	30.01	1.267864773911
7	161956	30.11	1.5
7	162513	30.21	1.5
7	163070	30.31	1.5
7	163627	30.41	1.5
7	164184	30.51	1.5
7	164741	30.61	1.5
7	165298	30.71	1.5
7	165855	30.81	1.5
7	166412	30.91	1.5
7	166977	31.01	1.5
7	167534	31.11	1.5
7	168091	31.21	1.5
7	168648	31.31	1.5
7	169205	31.41	1.5
7	169762	31.51	1.5
7	170319	31.61	1.5
7	170876	31.71	1.5
7	171433	31.81	1.5
7	171990	31.91	1.2601181665204
7	172555	32.01	0.8482520712972
7	173112	32.11	0.41903673064365
7	173669	32.21	-0.016893952363397
7	174226	32.31	-0.44949259223633
7	174783	32.41	-0.8693892809368
7	175340	32.51	-1.2679727801776
7	175897	32.61	-1.5
7	176454	32.71	-1.5
7	177011	32.81	-1.5
7	177568	32.91	-1.5
7	178133	33.01	-1.5
7	178690	33.11	-1.5
7	179247	33.21	-1.5
7	179804	33.31	-1.5
7	180361	33.41	-1.5
7	180918	33.51	-1.5
7	181475	33.61	-1.5
7	182032	33.71	-1.5
7	182589	33.81	-1.5
7	183146	33.91	-1.5
7	183711	34.01	-1.5
7	184268	34.11	-1.5
7	184825	34.21	-1.5
7	185382	34.31	-1.5
7	185939	34.41	-1.2601718862041
7	186496	34.51	-0.84830501011592
7	187053	34.61	-0.41908807937801
7	187610	34.71	0.016844829035612
7	188167	34.81	0.44944617558609
7	188724	34.91	0.86934591722741
7	189289	35.01	1.2679326987083
7	189846	35.11	1.5
7	190403	35.21	1.5
7	190960	35.31	1.5
7	191517	35.41	1.5
7	192074	35.51	1.5
7	192631	35.61	1.5
7	193188	35.71	1.5
7	193745	35.81	1.5
7	194302	35.91	1.5
7	194867	36.01	1.5
7	195424	36.11	1.5
7	195981	36.21	1.5
7	196538	36.31	1.5
7	197095	36.41	1.5
7	197652	36.51	1.5
7	198209	36.61	1.5
7	198766	36.71	1.5
7	199323	36.81	1.5
7	199880	36.91	1.2601519506571
7	200445	37.01	0.84828536435039
7	201002	37.11	0.41906902369788
7	201559	37.21	-0.016863058860221
7	202116	37.31	-0.44946340095391
7	202673	37.41	-0.86936200963904
7	203230	37.51	-1.2679475730701
7	203787	37.61	-1.5
7	204344	37.71	-1.5
7	204901	37.81	-1.5
7	205458	37.91	-1.5
7	206023	38.01	-1.5
7	206580	38.11	-1.5
7	207137	38.21	-1.5
7	207694	38.31	-1.5
7	208251	38.41	-1.5
7	208808	38.51	-1.5
7	209365	38.61	-1.5
7	209922	38.71	-1.5
7	210479	38.81	-1.5
7	211036	38.91	-1.5
7	211601	39.01	-1.5
7	212158	39.11	-1.5
7	212715	39.21	-1.5
7	213272	39.31	-1.5
7	213829	39.41	-1.2601593488036
7	214386	39.51	-0.84829265495814
7	214943	39.61	-0.41907609532306
7	215500	39.71	0.01685629371266
7	216057	39.81	0.44945700856354
7	216614	39.91	0.86935603769241
7	217179	40.01	1.2679420531458
7	217736	40.11	1.5
7	218293	40.21	1.5
7	218850	40.31	1.5
7	219407	40.41	1.5
7	219964	40.51	1.5
7	220521	40.61	1.5
7	221078	40.71	1.5
7	221635	40.81	1.5
7	222192	40.91	1.5
7	222757	41.01	1.5
7	223314	41.11	1.5
7	223871	41.21	1.5
7	224428	41.31	1.5
7	224985	41.41	1.5
7	225542	41.51	1.5
7	226099	41.61	1.5
7	226656	41.71	1.5
7	227213	41.81	1.5
7	227770	41.91	1.2601566033284
7	228335	42.01	0.84828994939093
7	228892	42.11	0.41907347102099
7	229449	42.21	-0.016858804279881
7	230006	42.31	-0.44945938079935
7	230563	42.41	-0.86935825390018
7	231120	42.51	-1.2679441016066
7	231677	42.61	-1.5
7	232234	42.71	-1.5
7	232791	42.81	-1.5
7	233348	42.91	-1.5
7	233913	43.01	-1.5
7	234470	43.11	-1.5
7	235027	43.21	-1.5
7	235584	43.31	-1.5
7	236141	43.41	-1.5
7	236698	43.51	-1.5
7	237255	43.61	-1.5
7	237812	43.71	-1.5
7	238369	43.81	-1.5
7	238926	43.91	-1.5
7	239491	44.01	-1.5
7	240048	44.11	-1.5
7	240605	44.21	-1.5
7	241162	44.31	-1.5
7	241719	44.41	-1.2601576221815
7	242276	44.51	-0.84829095343405
7	242833	44.61	-0.41907444490634
7	243390	44.71	0.016857872601886
7	243947	44.81	0.44945850045656
7	244504	44.91	0.86935743145978
6	232	1.11	-1.2391545567425e-07
6	788	1.21	-2.514333630188e-07
6	1344	1.31	-3.5153284727585e-07
6	1900	1.41	-4.2734420446777e-07
6	2456	1.51	-4.8187125401e-07
6	3012	1.61	-5.1795971955926e-07
6	3568	1.71	-5.3827413637464e-07
6	4124	1.81	-5.4528506154838e-07
6	4680	1.91	-5.4125663950799e-07
6	5244	2.01	-5.2824375984528e-07
6	5800	2.11	-5.080941889446e-07
6	6356	2.21	-4.8245141215375e-07
6	6912	2.31	-4.5276244975412e-07
6	7468	2.41	-4.202860282021e-07
6	8024	2.51	-3.8610643571246e-07
6	8580	2.61	-3.5114133822844e-07
6	9136	2.71	-3.1616025353287e-07
6	9692	2.81	-2.8179307776099e-07
6	10248	2.91	-2.4854536206931e-07
6	10812	3.01	-2.1681287876163e-07
6	11368	3.11	-1.8689298997288e-07
6	11924	3.21	-1.5899530581009e-07
6	12480	3.31	-1.3325838210676e-07
6	13036	3.41	-1.0975469422192e-07
6	13592	3.51	-8.8505203166278e-08
6	14148	3.61	-6.948575048682e-08
6	14704	3.71	-5.263665059374e-08
6	15260	3.81	-3.7870506730542e-08
6	15816	3.91	-2.5077895315917e-08
6	16380	4.01	-1.4133405557004e-08
6	16936	4.11	-4.9016790626411e-09
6	17492	4.21	2.7593927143243e-09
6	18048	4.31	8.9940499492513e-09
6	18604	4.41	1.3947598631603e-08
6	19160	4.51	1.7761081494427e-08
6	19716	4.61	2.0570567471623e-08
6	20272	4.71	2.2507151697937e-08
6	20828	4.81	2.3691626438449e-08
6	21384	4.91	2.4239099616352e-08
6	21949	5.01	2.4253310471067e-08
6	22506	5.11	0.0068264526728257
6	23063	5.21	0.074594836732089
6	23620	5.31	0.19005134681258
6	24177	5.41	0.34050272642077
6	24734	5.51	0.51301638947834
6	25291	5.61	0.6902545856434
6	25848	5.71	0.83572672600098
6	26405	5.81	0.95506454902292
6	26962	5.91	1.0529631292492
6	27527	6.01	1.133274063098
6	28084	6.11	1.1991570011418
6	28641	6.21	1.2532039573571
6	29198	6.31	1.2975412860019
6	29755	6.41	1.333913338177
6	30312	6.51	1.3635927249268
6	30869	6.61	1.3702053615898
6	31426	6.71	1.3272611926745
6	31983	6.81	1.2373810921854
6	32540	6.91	1.1040433755532
6	33105	7.01	0.93147092012096
6	33662	7.11	0.72451590565734
6	34219	7.21	0.48854318346834
6	34776	7.31	0.2293132962599
6	35333	7.41	-0.044839398398011
6	35890	7.51	-0.30626147443016
6	36447	7.61	-0.52071863005345
6	37004	7.71	-0.69664819306503
6	37561	7.81	-0.84097171097959
6	38118	7.91	-0.95936726353223
6	38683	8.01	-1.0564928537818
6	39240	8.11	-1.1361696666178
6	39797	8.21	-1.2015324045674
6	40354	8.31	-1.2551526155189
6	40911	8.41	-1.2991398644115
6	41468	8.51	-1.3352247292573
6	42025	8.61	-1.3648268867847
6	42582	8.71	-1.3891109663845
6	43139	8.81	-1.4090323697992
6	43696	8.91	-1.4253748592211
6	44261	9.01	-1.4387813926344
6	44818	9.11	-1.4497794195275
6	45375	9.21	-1.4588016321909
6	45932	9.31	-1.4662029890104
6	46489	9.41	-1.4722746794938
6	47046	9.51	-1.4696249146823
6	47603	9.61	-1.3967850639141
6	48160	9.71	-1.2587757641274
6	48717	9.81	-1.0660952217858
6	49274	9.91	-0.82923335017639
6	49839	10.01	-0.55852907832801
6	50396	10.11	-0.26404116068406
6	50953	10.21	0.03943269874469
6	51510	10.31	0.30182609756224
6	52067	10.41	0.51708007617997
6	52624	10.51	0.69366331158065
6	53181	10.61	0.83852306852847
6	53738	10.71	0.95735852386056
6	54295	10.81	1.0548449876072
6	54852	10.91	1.1348178424026
6	55417	11.01	1.2004234378704
6	55974	11.11	1.2542428765748
6	56531	11.21	1.2983935616166
6	57088	11.31	1.3346125010283
6	57645	11.41	1.3643246463978
6	58202	11.51	1.3886989543376
6	58759	11.61	1.4086943764163
6	59316	11.71	1.4250975869238
6	59873	11.81	1.4385539327762
6	60430	11.91	1.4345627372837
6	60995	12.01	1.3623449188774
6	61552	12.11	1.2299875654499
6	62109	12.21	1.0461448397812
6	62666	12.31	0.81967864249357
6	63223	12.41	0.55952045905059
6	63780	12.51	0.27454262949682
6	64337	12.61	-0.02234164487227
6	64894	12.71	-0.28780548057448
6	65451	12.81	-0.50557828687161
6	66008	12.91	-0.68422783827593
6	66573	13.01	-0.83078269404453
6	67130	13.11	-0.95100872081275
6	67687	13.21	-1.0496359374716
6	68244	13.31	-1.1305446069798
6	68801	13.41	-1.1969178964556
6	69358	13.51	-1.2513671116345
6	69915	13.61	-1.2960344327361
6	70472	13.71	-1.3326771936619
6	71029	13.81	-1.3627370202897
6	71586	13.91	-1.3873965479586
6	72151	14.01	-1.4076259495578
6	72708	14.11	-1.4242211047666
6	73265	14.21	-1.4378349121291
6	73822	14.31	-1.4490029758537
6	74379	14.41	-1.4542593951845
6	74936	14.51	-1.4067454390027
6	75493	14.61	-1.2938574955285
6	76050	14.71	-1.1248409052222
6	76607	14.81	-0.90912582142266
6	77164	14.91	-0.65618298375618
6	77729	15.01	-0.37539052553193
6	78286	15.11	-0.078063005083351
6	78843	15.21	0.20543869668366
6	79400	15.31	0.43800883574043
6	79957	15.41	0.62879735391697
6	80514	15.51	0.78531039043881
6	81071	15.61	0.91370559385808
6	81628	15.71	1.0190343806951
6	82185	15.81	1.1054406719047
6	82742	15.91	1.1763239259967
6	83307	16.01	1.2344728829817
6	83864	16.11	1.2821752809831
6	84421	16.21	1.3213078620836
6	84978	16.31	1.3534102084598
6	85535	16.41	1.3797453137308
6	86092	16.51	1.4013492725667
6	86649	16.61	1.4190720434691
6	87206	16.71	1.4336108884482
6	87763	16.81	1.4455378052084
6	88320	16.91	1.4502949065335
6	88885	17.01	1.3935559567532
6	89442	17.11	1.2733368701447
6	89999	17.21	1.098674244054
6	90556	17.31	0.87879676591527
6	91113	17.41	0.62298329276125
6	91670	17.51	0.34043137853565
6	92227	17.61	0.043031849081743
6	92784	17.71	-0.23417644595263
6	93341	17.81	-0.46158379949546
6	93898	17.91	-0.64813703535336
6	94463	18.01	-0.80117566522588
6	95020	18.11	-0.92672064505699
6	95577	18.21	-1.0297112558188
6	96134	18.31	-1.1141994282603
6	96691	18.41	-1.1835091568827
6	97248	18.51	-1.2403672749226
6	97805	18.61	-1.2870107353905
6	98362	18.71	-1.3252746188858
6	98919	18.81	-1.3566643306586
6	99476	18.91	-1.382414827345
6	100041	19.01	-1.4035392035215
6	100598	19.11	-1.4208685496044
6	101155	19.21	-1.4350846492011
6	101712	19.31	-1.4467468023362
6	102269	19.41	-1.4517201941775
6	102826	19.51	-1.3984004323884
6	103383	19.61	-1.280899381009
6	103940	19.71	-1.1083308503771
6	104497	19.81	-0.88999806036796
6	105054	19.91	-0.63525086466818
6	105619	20.01	-0.35335363991322
6	106176	20.11	-0.055983891306965
6	106733	20.21	0.22355126013309
6	107290	20.31	0.45286744637245
6	107847	20.41	0.64098658988812
6	108404	20.51	0.79530980944469
6	108961	20.61	0.92190860023926
6	109518	20.71	1.0257637030335
6	110075	20.81	1.1109610600446
6	110632	20.91	1.1808525670222
6	111197	21.01	1.2381879459468
6	111754	21.11	1.2852229265704
6	112311	21.21	1.32380799296
6	112868	21.31	1.3554611865732
6	113425	21.41	1.3814278301393
6	113982	21.51	1.402729522043
6	114539	21.61	1.4202043287796
6	115096	21.71	1.4345397567766
6	115653	21.81	1.4462998007627
6	116210	21.91	1.4512038299461
6	116775	22.01	1.3966149622046
6	117332	22.11	1.2781048258542
6	117889	22.21	1.104758616826
6	118446	22.31	0.88585193073989
6	119003	22.41	0.63070830476128
6	119560	22.51	0.3485673438103
6	120117	22.61	0.051185654371366
6	120674	22.71	-0.22748748564538
6	121231	22.81	-0.45609652227974
6	121788	22.91	-0.64363555681837
6	122353	23.01	-0.79748288496262
6	122910	23.11	-0.92369127904597
6	123467	23.21	-1.0272261205628
6	124024	23.31	-1.1121607517783
6	124581	23.41	-1.1818367320963
6	125138	23.51	-1.238995304092
6	125695	23.61	-1.2858852414524
6	126252	23.71	-1.3243513218473
6	126809	23.81	-1.355906905502
6	127366	23.91	-1.3817934749046
6	127931	24.01	-1.403029478104
6	128488	24.11	-1.4204503972248
6	129045	24.21	-1.434741618608
6	129602	24.31	-1.4464653977726
6	130159	24.41	-1.4513952146881
6	130716	24.51	-1.3972773206763
6	131273	24.61	-1.2791416668563
6	131830	24.71	-1.1060840673021
6	132387	24.81	-0.88739036841652
6	132944	24.91	-0.63239387292597
6	133509	25.01	-0.35034337810913
6	134066	25.11	-0.052966136909305
6	134623	25.21	0.2260268698226
6	135180	25.31	0.45489830857264
6	135737	25.41	0.64265260424108
6	136294	25.51	0.79667652148672
6	136851	25.61	0.92302978013947
6	137408	25.71	1.026683461059
6	137965	25.81	1.1117155819772
6	138522	25.91	1.1814715378073
6	139087	26.01	1.2386957175785
6	139644	26.11	1.2856394761656
6	140201	26.21	1.3241497087126
6	140758	26.31	1.3557415125099
6	141315	26.41	1.381657795045
6	141872	26.51	1.4029181733619
6	142429	26.61	1.4203590885685
6	142986	26.71	1.4346667137069
6	143543	26.81	1.4464039496644
6	144100	26.91	1.4513241957726
6	144665	27.01	1.3970315218256
6	145222	27.11	1.2787568961965
6	145779	27.21	1.1055921925461
6	146336	27.31	0.88681945319387
6	146893	27.41	0.63176835684509
6	147450	27.51	0.34968428947479
6	148007	27.61	0.052305397195695
6	148564	27.71	-0.22656890652364
6	149121	27.81	-0.45534296745835
6	149678	27.91	-0.64301737940227
6	150243	28.01	-0.79697576417033
6	150800	28.11	-0.92327526336611
6	151357	28.21	-1.0268848428069
6	151914	28.31	-1.1118807851517
6	152471	28.41	-1.1816070619506
6	153028	28.51	-1.2388068945789
6	153585	28.61	-1.2857306800289
6	154142	28.71	-1.3242245276459
6	154699	28.81	-1.3558028900945
6	155256	28.91	-1.3817081460427
6	155821	29.01	-1.4029594787171
6	156378	29.11	-1.4203929733469
6	156935	29.21	-1.4346945110272
6	157492	29.31	-1.4464267531491
6	158049	29.41	-1.4513505510322
6	158606	29.51	-1.3971227384758
6	159163	29.61	-1.2788996857299
6	159720	29.71	-1.1057747287548
6	160277	29.81	-0.88703132157519
6	160834	29.91	-0.63200048778356
6	161399	30.01	-0.34992887929945
6	161956	30.11	-0.052550599747647
6	162513	30.21	0.2263677550264
6	163070	30.31	0.45517795317025
6	163627	30.41	0.64288201021157
6	164184	30.51	0.7968647142846
6	164741	30.61	0.92318416378134
6	165298	30.71	1.0268101094169
6	165855	30.81	1.1118194777417
6	166412	30.91	1.1815567685211
6	166977	31.01	1.2387656364492
6	167534	31.11	1.2856968339921
6	168091	31.21	1.3241967621074
6	168648	31.31	1.3557801126822
6	169205	31.41	1.3816894606308
6	169762	31.51	1.4029441501705
6	170319	31.61	1.4203803985996
6	170876	31.71	1.4346841953547
6	171433	31.81	1.4464182907037
6	171990	31.91	1.451340770512
6	172555	32.01	1.397088887688
6	173112	32.11	1.2788466960817
6	173669	32.21	1.105706988989
6	174226	32.31	0.88695269654693
6	174783	32.41	0.6319143432556
6	175340	32.51	0.34983811123936
6	175897	32.61	0.052459604302157
6	176454	32.71	-0.22644240298604
6	177011	32.81	-0.45523919049693
6	177568	32.91	-0.64293224614822
6	178133	33.01	-0.7969059252499
6	178690	33.11	-0.92321797112582
6	179247	33.21	-1.0268378432144
6	179804	33.31	-1.1118422291158
6	180361	33.41	-1.181575432572
6	180918	33.51	-1.2387809474717
6	181475	33.61	-1.2857093943634
6	182032	33.71	-1.3242070659867
6	182589	33.81	-1.3557885654517
6	183146	33.91	-1.3816963948457
6	183711	34.01	-1.4029498386424
6	184268	34.11	-1.4203850651278
6	184825	34.21	-1.434688023533
6	185382	34.31	-1.4464214311442
6	185939	34.41	-1.4513444000944
6	186496	34.51	-1.3971014498232
6	187053	34.61	-1.2788663607086
6	187610	34.71	-1.1057321274318
6	188167	34.81	-0.88698187454561
6	188724	34.91	-0.63194631176522
6	189289	35.01	-0.34987179555621
6	189846	35.11	-0.052493373001994
6	190403	35.21	0.22641470089013
6	190960	35.31	0.45521646512974
6	191517	35.41	0.64291360343276
6	192074	35.51	0.79689063173021
6	192631	35.61	0.9232054251143
6	193188	35.71	1.0268275511155
6	193745	35.81	1.1118337860104
6	194302	35.91	1.1815685062846
6	194867	36.01	1.2387752655037
6	195424	36.11	1.2857047331707
6	195981	36.21	1.324203242185
6	196538	36.31	1.3557854286034
6	197095	36.41	1.3816938215378
6	197652	36.51	1.4029477276342
6	198209	36.61	1.4203833333653
6	198766	36.71	1.4346866028841
6	199323	36.81	1.4464202657173
6	199880	36.91	1.4513430531448
6	200445	37.01	1.3970967879747
6	201002	37.11	1.2788590631025
6	201559	37.21	1.1057227984747
6	202116	37.31	0.8869710464964
6	202673	37.41	0.63193444814829
6	203230	37.51	0.34985929519813
6	203787	37.61	0.052480841329228
6	204344	37.71	-0.22642498122742
6	204901	37.81	-0.45522489858705
6	205458	37.91	-0.64292052180406
6	206023	38.01	-0.79689630720416
6	206580	38.11	-0.92321008097898
6	207137	38.21	-1.0268313705456
6	207694	38.31	-1.1118369192733
6	208251	38.41	-1.1815710766513
6	208808	38.51	-1.2387773740993
6	209365	38.61	-1.2857064629529
6	209922	38.71	-1.3242046612092
6	210479	38.81	-1.3557865926966
6	211036	38.91	-1.3816947764997
6	211601	39.01	-1.4029485110349
6	212158	39.11	-1.420383976027
6	212715	39.21	-1.4346871300905
6	213272	39.31	-1.4464206982101
6	213829	39.41	-1.4513435530016
6	214386	39.51	-1.3970985180016
6	214943	39.61	-1.2788617712673
6	215500	39.71	-1.1057262604808
6	216057	39.81	-0.88697506482056
6	216614	39.91	-0.63193885077553
6	217179	40.01	-0.34986393412169
6	217736	40.11	-0.052485491873711
6	218293	40.21	0.22642116616005
6	218850	40.31	0.45522176890245
6	219407	40.41	0.64291795437263
6	219964	40.51	0.79689420101552
6	220521	40.61	0.92320835317068
6	221078	40.71	1.0268299531418
6	221635	40.81	1.1118357565078
6	222192	40.91	1.1815701227786
6	222757	41.01	1.2387765915918
6	223314	41.11	1.2857058210248
6	223871	41.21	1.3242041346043
6	224428	41.31	1.3557861606976
6	224985	41.41	1.3816944221094
6	225542	41.51	1.4029482203117
6	226099	41.61	1.420383737533
6	226656	41.71	1.4346869344426
6	227213	41.81	1.4464205377106
6	227770	41.91	1.4513433675031
6	228335	42.01	1.3970978759829
6	228892	42.11	1.2788607662586
6	229449	42.21	1.1057249757194
6	230006	42.31	0.88697357360701
6	230563	42.41	0.6319372169461
6	231120	42.51	0.3498622126024
6	231677	42.61	0.052483766041789
6	232234	42.71	-0.22642258194381
6	232791	42.81	-0.45522293033819
6	233348	42.91	-0.64291890715467
6	233913	43.01	-0.79689498262923
6	234470	43.11	-0.92320899436622
6	235027	43.21	-1.0268304791456
6	235584	43.31	-1.111836188014
6	236141	43.41	-1.1815704767642
6	236698	43.51	-1.2387768819831
6	237255	43.61	-1.2857060592466
6	237812	43.71	-1.3242043300295
6	238369	43.81	-1.3557863210146
6	238926	43.91	-1.3816945536259
6	239491	44.01	-1.4029483282012
6	240048	44.11	-1.4203838260396
6	240605	44.21	-1.4346870070494
6	241162	44.31	-1.4464205972729
6	241719	44.41	-1.4513434363423
6	242276	44.51	-1.3970981142382
6	242833	44.61	-1.2788611392207
6	243390	44.71	-1.1057254524978
6	243947	44.81	-0.88697412700043
6	244504	44.91	-0.63193782326394
5	232	1.11	36.55
5	788	1.21	36.55
5	1344	1.31	36.55
5	1900	1.41	36.55
5	2456	1.51	36.55
5	3012	1.61	36.55
5	3568	1.71	36.55
5	4124	1.81	36.55
5	4680	1.91	36.55
5	5244	2.01	36.55
5	5800	2.11	36.55
5	6356	2.21	36.55
5	6912	2.31	36.55
5	7468	2.41	36.55
5	8024	2.51	36.55
5	8580	2.61	36.55
5	9136	2.71	36.55
5	9692	2.81	36.55
5	10248	2.91	36.55
5	10812	3.01	36.55
5	11368	3.11	36.55
5	11924	3.21	36.55
5	12480	3.31	36.55
5	13036	3.41	36.55
5	13592	3.51	36.55
5	14148	3.61	36.55
5	14704	3.71	36.55
5	15260	3.81	36.55
5	15816	3.91	36.55
5	16380	4.01	36.55
5	16936	4.11	36.55
5	17492	4.21	36.55
5	18048	4.31	36.55
5	18604	4.41	36.55
5	19160	4.51	36.55
5	19716	4.61	36.55
5	20272	4.71	36.55
5	20828	4.81	36.55
5	21384	4.91	36.55
5	21949	5.01	36.55
5	22506	5.11	36.55
5	23063	5.21	36.55
5	23620	5.31	36.55
5	24177	5.41	36.55
5	24734	5.51	36.55
5	25291	5.61	36.55
5	25848	5.71	36.55
5	26405	5.81	36.55
5	26962	5.91	36.55
5	27527	6.01	36.55
5	28084	6.11	36.55
5	28641	6.21	36.55
5	29198	6.31	36.55
5	29755	6.41	36.55
5	30312	6.51	36.55
5	30869	6.61	36.55
5	31426	6.71	36.55
5	31983	6.81	36.55
5	32540	6.91	36.55
5	33105	7.01	36.55
5	33662	7.11	36.55
5	34219	7.21	36.55
5	34776	7.31	36.55
5	35333	7.41	36.55
5	35890	7.51	36.55
5	36447	7.61	36.55
5	37004	7.71	36.55
5	37561	7.81	36.55
5	38118	7.91	36.55
5	38683	8.01	36.55
5	39240	8.11	36.55
5	39797	8.21	36.55
5	40354	8.31	36.55
5	40911	8.41	36.55
5	41468	8.51	36.55
5	42025	8.61	36.55
5	42582	8.71	36.55
5	43139	8.81	36.55
5	43696	8.91	36.55
5	44261	9.01	36.55
5	44818	9.11	36.55
5	45375	9.21	36.55
5	45932	9.31	36.55
5	46489	9.41	36.55
5	47046	9.51	36.55
5	47603	9.61	36.55
5	48160	9.71	36.55
5	48717	9.81	36.55
5	49274	9.91	36.55
5	49839	10.01	36.55
5	50396	10.11	36.55
5	50953	10.21	36.55
5	51510	10.31	36.55
5	52067	10.41	36.55
5	52624	10.51	36.55
5	53181	10.61	36.55
5	53738	10.71	36.55
5	54295	10.81	36.55
5	54852	10.91	36.55
5	55417	11.01	36.55
5	55974	11.11	36.55
5	56531	11.21	36.55
5	57088	11.31	36.55
5	57645	11.41	36.55
5	58202	11.51	36.55
5	58759	11.61	36.55
5	59316	11.71	36.55
5	59873	11.81	36.55
5	60430	11.91	36.55
5	60995	12.01	36.55
5	61552	12.11	36.55
5	62109	12.21	36.55
5	62666	12.31	36.55
5	63223	12.41	36.55
5	63780	12.51	36.55
5	64337	12.61	36.55
5	64894	12.71	36.55
5	65451	12.81	36.55
5	66008	12.91	36.55
5	66573	13.01	36.55
5	67130	13.11	36.55
5	67687	13.21	36.55
5	68244	13.31	36.55
5	68801	13.41	36.55
5	69358	13.51	36.55
5	69915	13.61	36.55
5	70472	13.71	36.55
5	71029	13.81	36.55
5	71586	13.91	36.55
5	72151	14.01	36.55
5	72708	14.11	36.55
5	73265	14.21	36.55
5	73822	14.31	36.55
5	74379	14.41	36.55
5	74936	14.51	36.55
5	75493	14.61	36.55
5	76050	14.71	36.55
5	76607	14.81	36.55
5	77164	14.91	36.55
5	77729	15.01	36.55
5	78286	15.11	36.55
5	78843	15.21	36.55
5	79400	15.31	36.55
5	79957	15.41	36.55
5	80514	15.51	36.55
5	81071	15.61	36.55
5	81628	15.71	36.55
5	82185	15.81	36.55
5	82742	15.91	36.55
5	83307	16.01	36.55
5	83864	16.11	36.55
5	84421	16.21	36.55
5	84978	16.31	36.55
5	85535	16.41	36.55
5	86092	16.51	36.55
5	86649	16.61	36.55
5	87206	16.71	36.55
5	87763	16.81	36.55
5	88320	16.91	36.55
5	88885	17.01	36.55
5	89442	17.11	36.55
5	89999	17.21	36.55
5	90556	17.31	36.55
5	91113	17.41	36.55
5	91670	17.51	36.55
5	92227	17.61	36.55
5	92784	17.71	36.55
5	93341	17.81	36.55
5	93898	17.91	36.55
5	94463	18.01	36.55
5	95020	18.11	36.55
5	95577	18.21	36.55
5	96134	18.31	36.55
5	96691	18.41	36.55
5	97248	18.51	36.55
5	97805	18.61	36.55
5	98362	18.71	36.55
5	98919	18.81	36.55
5	99476	18.91	36.55
5	100041	19.01	36.55
5	100598	19.11	36.55
5	101155	19.21	36.55
5	101712	19.31	36.55
5	102269	19.41	36.55
5	102826	19.51	36.55
5	103383	19.61	36.55
5	103940	19.71	36.55
5	104497	19.81	36.55
5	105054	19.91	36.55
5	105619	20.01	36.55
5	106176	20.11	36.55
5	106733	20.21	36.55
5	107290	20.31	36.55
5	107847	20.41	36.55
5	108404	20.51	36.55
5	108961	20.61	36.55
5	109518	20.71	36.55
5	110075	20.81	36.55
5	110632	20.91	36.55
5	111197	21.01	36.55
5	111754	21.11	36.55
5	112311	21.21	36.55
5	112868	21.31	36.55
5	113425	21.41	36.55
5	113982	21.51	36.55
5	114539	21.61	36.55
5	115096	21.71	36.55
5	115653	21.81	36.55
5	116210	21.91	36.55
5	116775	22.01	36.55
5	117332	22.11	36.55
5	117889	22.21	36.55
5	118446	22.31	36.55
5	119003	22.41	36.55
5	119560	22.51	36.55
5	120117	22.61	36.55
5	120674	22.71	36.55
5	121231	22.81	36.55
5	121788	22.91	36.55
5	122353	23.01	36.55
5	122910	23.11	36.55
5	123467	23.21	36.55
5	124024	23.31	36.55
5	124581	23.41	36.55
5	125138	23.51	36.55
5	125695	23.61	36.55
5	126252	23.71	36.55
5	126809	23.81	36.55
5	127366	23.91	36.55
5	127931	24.01	36.55
5	128488	24.11	36.55
5	129045	24.21	36.55
5	129602	24.31	36.55
5	130159	24.41	36.55
5	130716	24.51	36.55
5	131273	24.61	36.55
5	131830	24.71	36.55
5	132387	24.81	36.55
5	132944	24.91	36.55
5	133509	25.01	36.55
5	134066	25.11	36.55
5	134623	25.21	36.55
5	135180	25.31	36.55
5	135737	25.41	36.55
5	136294	25.51	36.55
5	136851	25.61	36.55
5	137408	25.71	36.55
5	137965	25.81	36.55
5	138522	25.91	36.55
5	139087	26.01	36.55
5	139644	26.11	36.55
5	140201	26.21	36.55
5	140758	26.31	36.55
5	141315	26.41	36.55
5	141872	26.51	36.55
5	142429	26.61	36.55
5	142986	26.71	36.55
5	143543	26.81	36.55
5	144100	26.91	36.55
5	144665	27.01	36.55
5	145222	27.11	36.55
5	145779	27.21	36.55
5	146336	27.31	36.55
5	146893	27.41	36.55
5	147450	27.51	36.55
5	148007	27.61	36.55
5	148564	27.71	36.55
5	149121	27.81	36.55
5	149678	27.91	36.55
5	150243	28.01	36.55
5	150800	28.11	36.55
5	151357	28.21	36.55
5	151914	28.31	36.55
5	152471	28.41	36.55
5	153028	28.51	36.55
5	153585	28.61	36.55
5	154142	28.71	36.55
5	154699	28.81	36.55
5	155256	28.91	36.55
5	155821	29.01	36.55
5	156378	29.11	36.55
5	156935	29.21	36.55
5	157492	29.31	36.55
5	158049	29.41	36.55
5	158606	29.51	36.55
5	159163	29.61	36.55
5	159720	29.71	36.55
5	160277	29.81	36.55
5	160834	29.91	36.55
5	161399	30.01	36.55
5	161956	30.11	36.55
5	162513	30.21	36.55
5	163070	30.31	36.55
5	163627	30.41	36.55
5	164184	30.51	36.55
5	164741	30.61	36.55
5	165298	30.71	36.55
5	165855	30.81	36.55
5	166412	30.91	36.55
5	166977	31.01	36.55
5	167534	31.11	36.55
5	168091	31.21	36.55
5	168648	31.31	36.55
5	169205	31.41	36.55
5	169762	31.51	36.55
5	170319	31.61	36.55
5	170876	31.71	36.55
5	171433	31.81	36.55
5	171990	31.91	36.55
5	172555	32.01	36.55
5	173112	32.11	36.55
5	173669	32.21	36.55
5	174226	32.31	36.55
5	174783	32.41	36.55
5	175340	32.51	36.55
5	175897	32.61	36.55
5	176454	32.71	36.55
5	177011	32.81	36.55
5	177568	32.91	36.55
5	178133	33.01	36.55
5	178690	33.11	36.55
5	179247	33.21	36.55
5	179804	33.31	36.55
5	180361	33.41	36.55
5	180918	33.51	36.55
5	181475	33.61	36.55
5	182032	33.71	36.55
5	182589	33.81	36.55
5	183146	33.91	36.55
5	183711	34.01	36.55
5	184268	34.11	36.55
5	184825	34.21	36.55
5	185382	34.31	36.55
5	185939	34.41	36.55
5	186496	34.51	36.55
5	187053	34.61	36.55
5	187610	34.71	36.55
5	188167	34.81	36.55
5	188724	34.91	36.55
5	189289	35.01	36.55
5	189846	35.11	36.55
5	190403	35.21	36.55
5	190960	35.31	36.55
5	191517	35.41	36.55
5	192074	35.51	36.55
5	192631	35.61	36.55
5	193188	35.71	36.55
5	193745	35.81	36.55
5	194302	35.91	36.55
5	194867	36.01	36.55
5	195424	36.11	36.55
5	195981	36.21	36.55
5	196538	36.31	36.55
5	197095	36.41	36.55
5	197652	36.51	36.55
5	198209	36.61	36.55
5	198766	36.71	36.55
5	199323	36.81	36.55
5	199880	36.91	36.55
5	200445	37.01	36.55
5	201002	37.11	36.55
5	201559	37.21	36.55
5	202116	37.31	36.55
5	202673	37.41	36.55
5	203230	37.51	36.55
5	203787	37.61	36.55
5	204344	37.71	36.55
5	204901	37.81	36.55
5	205458	37.91	36.55
5	206023	38.01	36.55
5	206580	38.11	36.55
5	207137	38.21	36.55
5	207694	38.31	36.55
5	208251	38.41	36.55
5	208808	38.51	36.55
5	209365	38.61	36.55
5	209922	38.71	36.55
5	210479	38.81	36.55
5	211036	38.91	36.55
5	211601	39.01	36.55
5	212158	39.11	36.55
5	212715	39.21	36.55
5	213272	39.31	36.55
5	213829	39.41	36.55
5	214386	39.51	36.55
5	214943	39.61	36.55
5	215500	39.71	36.55
5	216057	39.81	36.55
5	216614	39.91	36.55
5	217179	40.01	36.55
5	217736	40.11	36.55
5	218293	40.21	36.55
5	218850	40.31	36.55
5	219407	40.41	36.55
5	219964	40.51	36.55
5	220521	40.61	36.55
5	221078	40.71	36.55
5	221635	40.81	36.55
5	222192	40.91	36.55
5	222757	41.01	36.55
5	223314	41.11	36.55
5	223871	41.21	36.55
5	224428	41.31	36.55
5	224985	41.41	36.55
5	225542	41.51	36.55
5	226099	41.61	36.55
5	226656	41.71	36.55
5	227213	41.81	36.55
5	227770	41.91	36.55
5	228335	42.01	36.55
5	228892	42.11	36.55
5	229449	42.21	36.55
5	230006	42.31	36.55
5	230563	42.41	36.55
5	231120	42.51	36.55
5	231677	42.61	36.55
5	232234	42.71	36.55
5	232791	42.81	36.55
5	233348	42.91	36.55
5	233913	43.01	36.55
5	234470	43.11	36.55
5	235027	43.21	36.55
5	235584	43.31	36.55
5	236141	43.41	36.55
5	236698	43.51	36.55
5	237255	43.61	36.55
5	237812	43.71	36.55
5	238369	43.81	36.55
5	238926	43.91	36.55
5	239491	44.01	36.55
5	240048	44.11	36.55
5	240605	44.21	36.55
5	241162	44.31	36.55
5	241719	44.41	36.55
5	242276	44.51	36.55
5	242833	44.61	36.55
5	243390	44.71	36.55
5	243947	44.81	36.55
5	244504	44.91	36.55
4	232	1.11	112.38317031834
4	788	1.21	115.16094817913
4	1344	1.31	117.9387260372
4	1900	1.41	120.7165038916
4	2456	1.51	123.49428174162
4	3012	1.61	126.27205958675
4	3568	1.71	129.04983742666
4	4124	1.81	131.82761526117
4	4680	1.91	134.60539309023
4	5244	2.01	137.38317091391
4	5800	2.11	140.16094873235
4	6356	2.21	142.93872654575
4	6912	2.31	145.71650435439
4	7468	2.41	148.49428215857
4	8024	2.51	151.27205995861
4	8580	2.61	154.04983775487
4	9136	2.71	156.82761554768
4	9692	2.81	159.60539333739
4	10248	2.91	162.38317112436
4	10812	3.01	165.16094890891
4	11368	3.11	167.93872669134
4	11924	3.21	170.71650447197
4	12480	3.31	173.49428225105
4	13036	3.41	176.27206002885
4	13592	3.51	179.0498378056
4	14148	3.61	181.8276155815
4	14704	3.71	184.60539335674
4	15260	3.81	187.38317113148
4	15816	3.91	190.16094890586
4	16380	4.01	192.93872668002
4	16936	4.11	195.71650445406
4	17492	4.21	198.49428222806
4	18048	4.31	201.2720600021
4	18604	4.41	204.04983777625
4	19160	4.51	206.82761555054
4	19716	4.61	209.60539332501
4	20272	4.71	212.38317109969
4	20828	4.81	215.1609488746
4	21384	4.91	217.93872664975
4	21949	5.01	220.71650442514
4	22506	5.11	223.49428356606
4	23063	5.21	226.27228920892
4	23620	5.31	229.0512949454
4	24177	5.41	231.83252540312
4	24734	5.51	234.61753056579
4	25291	5.61	237.40804529582
4	25848	5.71	240.2057550777
4	26405	5.81	243.01206195182
4	26962	5.91	245.82811621146
4	27527	6.01	248.65486149774
4	28084	6.11	251.49307192505
4	28641	6.21	254.34338253681
4	29198	6.31	257.20631428982
4	29755	6.41	260.08229455009
4	30312	6.51	262.97167387494
4	30869	6.61	265.87471001428
4	31426	6.71	268.79135653516
4	31983	6.81	271.72108692106
4	32540	6.91	274.66291239563
4	33105	7.01	277.61541824606
4	33662	7.11	280.57680735787
4	34219	7.21	283.54494980509
4	34776	7.31	286.51743732838
4	35333	7.41	289.49164199078
4	35890	7.51	292.46485086505
4	36447	7.61	295.43456614481
4	37004	7.71	298.39872068476
4	37561	7.81	301.35561870576
4	38118	7.91	304.30386907828
4	38683	8.01	307.24233059156
4	39240	8.11	310.1700670553
4	39797	8.21	313.0863104674
4	40354	8.31	315.9904307986
4	40911	8.41	318.88191120552
4	41468	8.51	321.76032769652
4	42025	8.61	324.62533245081
4	42582	8.71	327.4766401342
4	43139	8.81	330.31401667326
4	43696	8.91	333.13727004624
4	44261	9.01	335.94624272844
4	44818	9.11	338.74080549475
4	45375	9.21	341.52085233553
4	45932	9.31	344.286296286
4	46489	9.41	347.03706600472
4	47046	9.51	349.77310522969
4	47603	9.61	352.49460926127
4	48160	9.71	355.20243942079
4	48717	9.81	357.89808747065
4	49274	9.91	360.5835705239
4	49839	10.01	363.26132642004
4	50396	10.11	365.93411087591
4	50953	10.21	368.60489665076
4	51510	10.31	371.27661195852
4	52067	10.41	373.95177810834
4	52624	10.51	376.63246992606
4	53181	10.61	379.32038949156
4	53738	10.71	382.01693310317
4	54295	10.81	384.72324621184
4	54852	10.91	387.44026848631
4	55417	11.01	390.16877078225
4	55974	11.11	392.90938546979
4	56531	11.21	395.66263131267
4	57088	11.31	398.42893387788
4	57645	11.41	401.20864227854
4	58202	11.51	404.00204290904
4	58759	11.61	406.8093707125
4	59316	11.71	409.63081842412
4	59873	11.81	412.46654415391
4	60430	11.91	415.31666280771
4	60995	12.01	418.18096935576
4	61552	12.11	421.05861848208
4	62109	12.21	423.94818108535
4	62666	12.31	426.84773127492
4	63223	12.41	429.75493516207
4	63780	12.51	432.66714008318
4	64337	12.61	435.58146383006
4	64894	12.71	438.49501765358
4	65451	12.81	441.4052557793
4	66008	12.91	444.31007910247
4	66573	13.01	447.20776562607
4	67130	13.11	450.09690271278
4	67687	13.21	452.97633150796
4	68244	13.31	455.8451013472
4	68801	13.41	458.70243235454
4	69358	13.51	461.54768476009
4	69915	13.61	464.38033372968
4	70472	13.71	467.19994871652
4	71029	13.81	470.00617652226
4	71586	13.91	472.79872740125
4	72151	14.01	475.57736366112
4	72708	14.11	478.34189031136
4	73265	14.21	481.09214739182
4	73822	14.31	483.82800367947
4	74379	14.41	486.54935230678
4	74936	14.51	489.25625981159
4	75493	14.61	491.94934149993
4	76050	14.71	494.62984110642
4	76607	14.81	497.29954444839
4	77164	14.91	499.96068501007
4	77729	15.01	502.61584939352
4	78286	15.11	505.26788351714
4	78843	15.21	507.91973025468
4	79400	15.31	510.57409875935
4	79957	15.41	513.2332307669
4	80514	15.51	515.89896528146
4	81071	15.61	518.5728109269
4	81628	15.71	521.25600530027
4	82185	15.81	523.94956366222
4	82742	15.91	526.65431888008
4	83307	16.01	529.37095419514
4	83864	16.11	532.10003010325
4	84421	16.21	534.84200640623
4	84978	16.31	537.59726030169
4	85535	16.41	540.36610122309
4	86092	16.51	543.1487830136
4	86649	16.61	545.94551391308
4	87206	16.71	548.7564647507
4	87763	16.81	551.58177566591
4	88320	16.91	554.42156060739
4	88885	17.01	557.27572307114
4	89442	17.11	560.14356468692
4	89999	17.21	563.02377179347
4	90556	17.31	565.91450509396
4	91113	17.41	568.81349207635
4	91670	17.51	571.71811966606
4	92227	17.61	574.62552639568
4	92784	17.71	577.53278662013
4	93341	17.81	580.43724807525
4	93898	17.91	583.33671878921
4	94463	18.01	586.22940058163
4	95020	18.11	589.11381831831
4	95577	18.21	591.98876187541
4	96134	18.31	594.8532385299
4	96691	18.41	597.70643390312
4	97248	18.51	600.54767992094
4	97805	18.61	603.37642852987
4	98362	18.71	606.19223013515
4	98919	18.81	608.9947159125
4	99476	18.91	611.78358329755
4	100041	19.01	614.55858408213
4	100598	19.11	617.31951464908
4	101155	19.21	620.06620796141
4	101712	19.31	622.79852699063
4	102269	19.41	625.51636024436
4	102826	19.51	628.21979288851
4	103383	19.61	630.90949246006
4	103940	19.71	633.58674669318
4	104497	19.81	636.25337504759
4	105054	19.91	638.91163554993
4	105619	20.01	641.56413143945
4	106176	20.11	644.2137183944
4	106733	20.21	646.86332840675
4	107290	20.31	649.51563477262
4	107847	20.41	652.17284786303
4	108404	20.51	654.83678095207
4	108961	20.61	657.50892155606
4	109518	20.71	660.19048995648
4	110075	20.81	662.8824872092
4	110632	20.91	665.58573452865
4	111197	21.01	668.30090559673
4	111754	21.11	671.02855306723
4	112311	21.21	673.76913030874
4	112868	21.31	676.52300924142
4	113425	21.41	679.29049496934
4	113982	21.51	682.0718377841
4	114539	21.61	684.86724301199
4	115096	21.71	687.6768790921
4	115653	21.81	690.50088420312
4	116210	21.91	693.33937075107
4	116775	22.01	696.19224944373
4	117332	22.11	699.05884132139
4	117889	22.21	701.93784902381
4	118446	22.31	704.82744572394
4	119003	22.41	707.72536801282
4	119560	22.51	710.62900899388
4	120117	22.61	713.53551083263
4	120674	22.71	716.44194388177
4	121231	22.81	719.34564263623
4	121788	22.91	722.2444035412
4	122353	23.01	725.13641891424
4	122910	23.11	728.02020582613
4	123467	23.21	730.89454775839
4	124024	23.31	733.75844674218
4	124581	23.41	736.61108409544
4	125138	23.51	739.45178821373
4	125695	23.61	742.28000814752
4	126252	23.71	745.09529192625
4	126809	23.81	747.8972687767
4	127366	23.91	750.68563453563
4	127931	24.01	753.46013968328
4	128488	24.11	756.22057952653
4	129045	24.21	758.96678614573
4	129602	24.31	761.69862178827
4	130159	24.41	764.41597438659
4	130716	24.51	767.11893170127
4	131273	24.61	769.80816845294
4	131830	24.71	772.48497842948
4	132387	24.81	775.1511857238
4	132944	24.91	777.80905174733
4	133509	25.01	780.46118203926
4	134066	25.11	783.11043363373
4	134623	25.21	785.75973704798
4	135180	25.31	788.41176067806
4	135737	25.41	791.06871060809
4	136294	25.51	793.73239659541
4	136851	25.61	796.40430327138
4	137408	25.71	799.08564855079
4	137965	25.81	801.77743154801
4	138522	25.91	804.48047188478
4	139087	26.01	807.19544193642
4	139644	26.11	809.92289328487
4	140201	26.21	812.66327841943
4	140758	26.31	815.41696853896
4	141315	26.41	818.18426815577
4	141872	26.51	820.96542707605
4	142429	26.61	823.76065022787
4	142986	26.71	826.57010572362
4	143543	26.81	829.39393147402
4	144100	26.91	832.23223967223
4	144665	27.01	835.08494198925
4	145222	27.11	837.95136213133
4	145779	27.21	840.83020498486
4	146336	27.31	843.71964544228
4	146893	27.41	846.61742135088
4	147450	27.51	849.52092666774
4	148007	27.61	852.42730406169
4	148564	27.71	855.33362333833
4	149121	27.81	858.23721717446
4	149678	27.91	861.13588042459
4	150243	28.01	864.02780410137
4	150800	28.11	866.91150420512
4	151357	28.21	869.78576333922
4	151914	28.31	872.6495828144
4	152471	28.41	875.50214335763
4	153028	28.51	878.3427728797
4	153585	28.61	881.17092003332
4	154142	28.71	883.9861325217
4	154699	28.81	886.78803930396
4	155256	28.91	889.57633599731
4	155821	29.01	892.35077290185
4	156378	29.11	895.11114517672
4	156935	29.21	897.85728478105
4	157492	29.31	900.58905386278
4	158049	29.41	903.30634027539
4	158606	29.51	906.0092321369
4	159163	29.61	908.6984051573
4	159720	29.71	911.3751539582
4	160277	29.81	914.04130327062
4	160834	29.91	916.6991149722
4	161399	30.01	919.3511949189
4	161956	30.11	922.00040033167
4	162513	30.21	924.64966152472
4	163070	30.31	927.30164621939
4	163627	30.41	929.95855990948
4	164184	30.51	932.62221186811
4	164741	30.61	935.29408632936
4	165298	30.71	937.97540088216
4	165855	30.81	940.66715437353
4	166412	30.91	943.37016620589
4	166977	31.01	946.08510857466
4	167534	31.11	948.81253291418
4	168091	31.21	951.55289159269
4	168648	31.31	954.30655570971
4	169205	31.41	957.07382969608
4	169762	31.51	959.85496329114
4	170319	31.61	962.65016136813
4	170876	31.71	965.45959199446
4	171433	31.81	968.28339304395
4	171990	31.91	971.12167668043
4	172555	32.01	973.97435470758
4	173112	32.11	976.84075119879
4	173669	32.21	979.71957134985
4	174226	32.31	982.60899029001
4	174783	32.41	985.50674603956
4	175340	32.51	988.41023267315
4	175897	32.61	991.31659292893
4	176454	32.71	994.22289653715
4	177011	32.81	997.12647592422
4	177568	32.91	1000.0251257256
4	178133	33.01	1002.9170367742
4	178690	33.11	1005.800724923
4	179247	33.21	1008.6749726544
4	179804	33.31	1011.5387811798
4	180361	33.41	1014.391331145
4	180918	33.51	1017.2319503938
4	181475	33.61	1020.0600875244
4	182032	33.71	1022.8752901948
4	182589	33.81	1025.6771873275
4	183146	33.91	1028.4654745093
4	183711	34.01	1031.2399020156
4	184268	34.11	1034.0002649851
4	184825	34.21	1036.7463953603
4	185382	34.31	1039.4781552754
4	185939	34.41	1042.1954325731
4	186496	34.51	1044.8983154206
4	187053	34.61	1047.587479664
4	187610	34.71	1050.26422004
4	188167	34.81	1052.9303613673
4	188724	34.91	1055.5881655878
4	189289	35.01	1058.2402386011
4	189846	35.11	1060.8894376538
4	190403	35.21	1063.5386930322
4	190960	35.31	1066.1906723648
4	191517	35.41	1068.847581064
4	192074	35.51	1071.5112283363
4	192631	35.61	1074.183098361
4	193188	35.71	1076.8644086823
4	193745	35.81	1079.5561581101
4	194302	35.91	1082.2591660169
4	194867	36.01	1084.9741045733
4	195424	36.11	1087.7015251932
4	195981	36.21	1090.4418802283
4	196538	36.31	1093.1955407643
4	197095	36.41	1095.9628112209
4	197652	36.51	1098.7439413282
4	198209	36.61	1101.539135952
4	198766	36.71	1104.3485631533
4	199323	36.81	1107.1723608011
4	199880	36.91	1110.010641055
4	200445	37.01	1112.863315737
4	201002	37.11	1115.7297089711
4	201559	37.21	1118.6085259956
4	202116	37.31	1121.4979419724
4	202673	37.41	1124.3956949457
4	203230	37.51	1127.2991790063
4	203787	37.61	1130.2055369019
4	204344	37.71	1133.1118383523
4	204901	37.81	1136.0154157495
4	205458	37.91	1138.9140636987
4	206023	38.01	1141.8059730082
4	206580	38.11	1144.6896595106
4	207137	38.21	1147.5639056716
4	207694	38.31	1150.4277126891
4	208251	38.41	1153.2802611974
4	208808	38.51	1156.1208790315
4	209365	38.61	1158.9490147817
4	209922	38.71	1161.7642161
4	210479	38.81	1164.5661119037
4	211036	38.91	1167.3543977757
4	211601	39.01	1170.1288239876
4	212158	39.11	1172.8891856756
4	212715	39.21	1175.6353147798
4	213272	39.31	1178.3670734326
4	213829	39.41	1181.084349475
4	214386	39.51	1183.787231081
4	214943	39.61	1186.4763941158
4	215500	39.71	1189.1531333315
4	216057	39.81	1191.8192735591
4	216614	39.91	1194.4770767493
4	217179	40.01	1197.1291488077
4	217736	40.11	1199.7783469846
4	218293	40.21	1202.4276015622
4	218850	40.31	1205.0795801564
4	219407	40.41	1207.7364881683
4	219964	40.51	1210.4001347951
4	220521	40.61	1213.0720042089
4	221078	40.71	1215.7533139473
4	221635	40.81	1218.4450628156
4	222192	40.91	1221.1480701818
4	222757	41.01	1223.8630082131
4	223314	41.11	1226.5904283208
4	223871	41.21	1229.330782854
4	224428	41.31	1232.0844428969
4	224985	41.41	1234.8517128674
4	225542	41.51	1237.6328424944
4	226099	41.61	1240.4280366426
4	226656	41.71	1243.2374633723
4	227213	41.81	1246.0612605515
4	227770	41.91	1248.8995403396
4	228335	42.01	1251.7522145609
4	228892	42.11	1254.6186073464
4	229449	42.21	1257.4974239404
4	230006	42.31	1260.3868395091
4	230563	42.41	1263.2845921001
4	231120	42.51	1266.1880758063
4	231677	42.61	1269.0944333768
4	232234	42.71	1272.00073453
4	232791	42.81	1274.9043116532
4	233348	42.91	1277.8029593474
4	233913	43.01	1280.6948684174
4	234470	43.11	1283.578554693
4	235027	43.21	1286.4528006377
4	235584	43.31	1289.3166074475
4	236141	43.41	1292.1691557553
4	236698	43.51	1295.0097733945
4	237255	43.61	1297.8379089546
4	237812	43.71	1300.6531100867
4	238369	43.81	1303.4550057074
4	238926	43.91	1306.2432913989
4	239491	44.01	1309.0177174326
4	240048	44.11	1311.7780789442
4	240605	44.21	1314.5242078733
4	241162	44.31	1317.2559663522
4	241719	44.41	1319.9732422217
4	242276	44.51	1322.6761236568
4	242833	44.61	1325.3652865251
4	243390	44.71	1328.042025581
4	243947	44.81	1330.7081656572
4	244504	44.91	1333.3659687055
3	232	1.11	27.777778619612
3	788	1.21	27.777778599967
3	1344	1.31	27.777778569105
3	1900	1.41	27.777778529595
3	2456	1.51	27.777778483698
3	3012	1.61	27.777778433385
3	3568	1.71	27.777778380352
3	4124	1.81	27.777778326039
3	4680	1.91	27.77777827165
3	5244	2.01	27.777778218173
3	5800	2.11	27.777778166406
3	6356	2.21	27.777778116967
3	6912	2.31	27.777778070327
3	7468	2.41	27.777778026819
3	8024	2.51	27.77777798666
3	8580	2.61	27.77777794997
3	9136	2.71	27.777777916782
3	9692	2.81	27.777777887063
3	10248	2.91	27.777777860724
3	10812	3.01	27.777777837628
3	11368	3.11	27.777777817609
3	11924	3.21	27.777777800471
3	12480	3.31	27.777777786005
3	13036	3.41	27.777777773991
3	13592	3.51	27.777777764203
3	14148	3.61	27.777777756416
3	14704	3.71	27.777777750412
3	15260	3.81	27.777777745977
3	15816	3.91	27.77777774291
3	16380	4.01	27.777777741018
3	16936	4.11	27.777777740126
3	17492	4.21	27.77777774007
3	18048	4.31	27.7777777407
3	18604	4.41	27.777777741882
3	19160	4.51	27.777777743495
3	19716	4.61	27.777777745434
3	20272	4.71	27.777777747604
3	20828	4.81	27.777777749925
3	21384	4.91	27.777777752329
3	21949	5.01	27.777777754758
3	22506	5.11	27.777846021452
3	23063	5.21	27.782059596653
3	23620	5.31	27.795775862036
3	24177	5.41	27.823056285431
3	24734	5.51	27.866721940626
3	25291	5.61	27.928063782047
3	25848	5.71	28.005327711868
3	26405	5.81	28.095658800357
3	26962	5.91	28.196709510244
3	27527	6.01	28.30655404332
3	28084	6.11	28.423612574297
3	28641	6.21	28.54658909619
3	29198	6.31	28.674420431867
3	29755	6.41	28.80623440578
3	30312	6.51	28.941313946553
3	30869	6.61	29.078388981218
3	31426	6.71	29.213351897492
3	31983	6.81	29.341385131305
3	32540	6.91	29.457981732945
3	33105	7.01	29.559024895864
3	33662	7.11	29.640856051762
3	34219	7.21	29.700331349918
3	34776	7.31	29.734866440411
3	35333	7.41	29.742492528104
3	35890	7.51	29.72320356612
3	36447	7.61	29.680432143932
3	37004	7.71	29.618396925437
3	37561	7.81	29.540558684394
3	38118	7.91	29.449756460671
3	38683	8.01	29.348319255796
3	39240	8.11	29.238157662213
3	39797	8.21	29.120839031188
3	40354	8.31	28.997649136664
3	40911	8.41	28.86964276111
3	41468	8.51	28.737685193533
3	42025	8.61	28.602486272297
3	42582	8.71	28.464628312097
3	43139	8.81	28.324589013804
3	43696	8.91	28.182760258515
3	44261	9.01	28.039463525222
3	44818	9.11	27.894962538668
3	45375	9.21	27.749473644999
3	45932	9.31	27.603174323409
3	46489	9.41	27.456210168651
3	47046	9.51	27.308798307138
3	47603	9.61	27.165456941051
3	48160	9.71	27.033088438825
3	48717	9.81	26.917629526736
3	49274	9.91	26.823966096352
3	49839	10.01	26.755942052805
3	50396	10.11	26.716381687291
3	50953	10.21	26.707072901132
3	51510	10.31	26.725876201723
3	52067	10.41	26.768249212414
3	52624	10.51	26.829957594714
3	53181	10.61	26.90752771624
3	53738	10.71	26.998109988574
3	54295	10.81	27.099366756701
3	54852	10.91	27.209380329303
3	55417	11.01	27.326577531569
3	55974	11.11	27.449667812217
3	56531	11.21	27.577592469696
3	57088	11.31	27.709482999991
3	57645	11.41	27.844626927306
3	58202	11.51	27.982439773336
3	58759	11.61	28.122442062297
3	59316	11.71	28.264240457043
3	59873	11.81	28.407512284116
3	60430	11.91	28.5515861915
3	60995	12.01	28.691427297144
3	61552	12.11	28.820647386679
3	62109	12.21	28.933709262078
3	62666	12.31	29.025954034973
3	63223	12.41	29.093614170539
3	63780	12.51	29.133813231597
3	64337	12.61	29.144595455085
3	64894	12.71	29.127327372936
3	65451	12.81	29.086213776084
3	66008	12.91	29.025538551786
3	66573	13.01	28.948815979671
3	67130	13.11	28.858928993054
3	67687	13.21	28.758242601384
3	68244	13.31	28.648696936139
3	68801	13.41	28.531883580877
3	69358	13.51	28.409108188466
3	69915	13.61	28.281441849017
3	70472	13.71	28.14976322948
3	71029	13.81	28.014793142794
3	71586	13.91	27.877122906629
3	72151	14.01	27.737237607429
3	72708	14.11	27.595535185033
3	73265	14.21	27.452342088714
3	73822	14.31	27.307926120577
3	74379	14.41	27.162546024449
3	74936	14.51	27.019330871672
3	75493	14.61	26.884559196285
3	76050	14.71	26.764258967301
3	76607	14.81	26.663521929862
3	77164	14.91	26.586493202078
3	77729	15.01	26.536374688625
3	78286	15.11	26.515419708568
3	78843	15.21	26.523668857685
3	79400	15.31	26.557383788157
3	79957	15.41	26.611989529068
3	80514	15.51	26.683733010807
3	81071	15.61	26.769535409097
3	81628	15.71	26.866871015679
3	82185	15.81	26.973667870074
3	82742	15.91	27.088226243028
3	83307	16.01	27.209151764536
3	83864	16.11	27.335300565535
3	84421	16.21	27.465734274985
3	84978	16.31	27.599683101797
3	85535	16.41	27.736515549161
3	86092	16.51	27.875713569743
3	86649	16.61	28.016852184292
3	87206	16.71	28.159582761803
3	87763	16.81	28.303619303423
3	88320	16.91	28.448676617794
3	88885	17.01	28.590971447913
3	89442	17.11	28.724006207991
3	89999	17.21	28.841930784337
3	90556	17.31	28.939810791426
3	91113	17.41	29.013638834762
3	91670	17.51	29.060332154734
3	92227	17.61	29.077746642843
3	92784	17.71	29.066350790361
3	93341	17.81	29.030054467132
3	93898	17.91	28.973331085061
3	94463	18.01	28.899850399997
3	95020	18.11	28.812622889912
3	95577	18.21	28.714118195293
3	96134	18.31	28.606362281514
3	96691	18.41	28.491017145825
3	97248	18.51	28.369446204845
3	97805	18.61	28.242767935079
3	98362	18.71	28.111899876827
3	98919	18.81	27.977594732713
3	99476	18.91	27.840469981056
3	100041	19.01	27.701032169144
3	100598	19.11	27.559696842186
3	101155	19.21	27.416804891984
3	101712	19.31	27.272635968552
3	102269	19.41	27.127465418657
3	102826	19.51	26.984833896344
3	103383	19.61	26.851159734065
3	103940	19.71	26.732358896103
3	104497	19.81	26.633424036685
3	105054	19.91	26.558413554113
3	105619	20.01	26.510454337265
3	106176	20.11	26.4917309481
3	106733	20.21	26.50196337238
3	107290	20.31	26.53730527926
3	107847	20.41	26.593245707503
3	108404	20.51	26.666084097724
3	108961	20.61	26.752784702327
3	109518	20.71	26.85085715093
3	110075	20.81	26.958258472424
3	110632	20.91	27.073312718935
3	111197	21.01	27.194645029473
3	111754	21.11	27.321127539161
3	112311	21.21	27.451835005966
3	112868	21.31	27.58600840916
3	113425	21.41	27.723025087377
3	113982	21.51	27.862374241425
3	114539	21.61	28.003636838057
3	115096	21.71	28.146469124058
3	115653	21.81	28.290589102065
3	116210	21.91	28.435718002991
3	116775	22.01	28.578225822974
3	117332	22.11	28.711663912643
3	117889	22.21	28.83014072939
3	118446	22.31	28.928685230703
3	119003	22.41	29.003257937223
3	119560	22.51	29.050748330675
3	120117	22.61	29.068986857173
3	120674	22.71	29.058323427182
3	121231	22.81	29.022627945499
3	121788	22.91	28.966397462768
3	122353	23.01	28.89332112684
3	122910	23.11	28.806425323882
3	123467	23.21	28.70819274464
3	124024	23.31	28.600660060247
3	124581	23.41	28.485498050406
3	125138	23.51	28.364077336405
3	125695	23.61	28.237522305085
3	126252	23.71	28.106755345282
3	126809	23.81	27.97253313711
3	127366	23.91	27.835476421811
3	127931	24.01	27.696094423411
3	128488	24.11	27.554804882971
3	129045	24.21	27.411950493662
3	129602	24.31	27.267812383245
3	130159	24.41	27.122668052051
3	130716	24.51	26.980114349492
3	131273	24.61	26.846588675637
3	131830	24.71	26.727991635756
3	132387	24.81	26.629302292308
3	132944	24.91	26.554567145367
3	133509	25.01	26.506902788277
3	134066	25.11	26.488484344384
3	134623	25.21	26.498987841018
3	135180	25.31	26.534552121643
3	135737	25.41	26.590674973809
3	136294	25.51	26.663663015186
3	136851	25.61	26.75048638586
3	137408	25.71	26.8486595454
3	137965	25.81	26.956143484941
3	138522	25.91	27.071265507027
3	139087	26.01	27.192653417141
3	139644	26.11	27.319181537848
3	140201	26.21	27.449926421574
3	140758	26.31	27.584130519676
3	141315	26.41	27.721172378408
3	141872	26.51	27.86054218925
3	142429	26.61	28.001821731647
3	142986	26.71	28.144667919078
3	143543	26.81	28.288799301099
3	144100	26.91	28.433937906563
3	144665	27.01	28.576474582405
3	145222	27.11	28.709967753931
3	145779	27.21	28.828520179047
3	146336	27.31	28.927155771518
3	146893	27.41	29.001830636677
3	147450	27.51	29.049430435655
3	148007	27.61	29.067782111948
3	148564	27.71	29.057219263808
3	149121	27.81	29.021606294275
3	149678	27.91	28.965443500247
3	150243	28.01	28.892422692631
3	150800	28.11	28.805572442229
3	151357	28.21	28.707377231949
3	151914	28.31	28.599875203121
3	152471	28.41	28.48473834152
3	153028	28.51	28.363338257835
3	153585	28.61	28.23680015056
3	154142	28.71	28.106047074368
3	154699	28.81	27.971836255593
3	155256	28.91	27.834788883566
3	155821	29.01	27.695414549904
3	156378	29.11	27.554131297218
3	156935	29.21	27.411282066058
3	157492	29.31	27.267148187119
3	158049	29.41	27.122007456828
3	158606	29.51	26.979464462325
3	159163	29.61	26.84595922909
3	159720	29.71	26.727390247301
3	160277	29.81	26.628734707679
3	160834	29.91	26.554037471766
3	161399	30.01	26.506413715074
3	161956	30.11	26.488037261118
3	162513	30.21	26.498578083731
3	163070	30.31	26.534172984659
3	163627	30.41	26.590320956139
3	164184	30.51	26.663329604102
3	164741	30.61	26.750169879354
3	165298	30.71	26.848356906536
3	165855	30.81	26.955852222374
3	166412	30.91	27.070983576984
3	166977	31.01	27.19237914302
3	167534	31.11	27.318913544249
3	168091	31.21	27.449663580191
3	168648	31.31	27.583871904903
3	169205	31.41	27.720917230929
3	169762	31.51	27.860289886159
3	170319	31.61	28.001571761945
3	170876	31.71	28.144419863567
3	171433	31.81	28.288552815892
3	171990	31.91	28.433692757653
3	172555	32.01	28.576233407281
3	173112	32.11	28.709734164377
3	173669	32.21	28.828297001933
3	174226	32.31	28.926945139104
3	174783	32.41	29.001634073159
3	175340	32.51	29.049248939068
3	175897	32.61	29.067616197954
3	176454	32.71	29.057067201598
3	177011	32.81	29.021465595353
3	177568	32.91	28.965312123179
3	178133	33.01	28.89229896273
3	178690	33.11	28.805454985668
3	179247	33.21	28.707264921712
3	179804	33.31	28.599767114663
3	180361	33.41	28.484633716391
3	180918	33.51	28.363236473841
3	181475	33.61	28.236700697287
3	182032	33.71	28.105949533098
3	182589	33.81	27.971740282831
3	183146	33.91	27.834694197528
3	183711	34.01	27.695320919427
3	184268	34.11	27.554038532669
3	184825	34.21	27.411190011872
3	185382	34.31	27.267056715677
3	185939	34.41	27.12191648129
3	186496	34.51	26.979374961472
3	187053	34.61	26.845872543266
3	187610	34.71	26.727307425566
3	188167	34.81	26.628656541322
3	188724	34.91	26.553964526421
3	189289	35.01	26.506346361114
3	189846	35.11	26.487975689908
3	190403	35.21	26.498521652962
3	190960	35.31	26.534120770842
3	191517	35.41	26.590272201691
3	192074	35.51	26.663283687543
3	192631	35.61	26.750126290851
3	193188	35.71	26.848315227851
3	193745	35.81	26.955812110404
3	194302	35.91	27.070944750266
3	194867	36.01	27.192341370657
3	195424	36.11	27.318876636823
3	195981	36.21	27.449627382316
3	196538	36.31	27.583836289107
3	197095	36.41	27.72088209264
3	197652	36.51	27.860255139592
3	198209	36.61	28.001537336726
3	198766	36.71	28.144385701967
3	199323	36.81	28.28851887055
3	199880	36.91	28.433658996343
3	200445	37.01	28.576200193231
3	201002	37.11	28.709701994993
3	201559	37.21	28.828266266525
3	202116	37.31	28.926916131321
3	202673	37.41	29.00160700291
3	203230	37.51	29.0492239438
3	203787	37.61	29.067593348683
3	204344	37.71	29.057046259961
3	204901	37.81	29.02144621864
3	205458	37.91	28.965294030249
3	206023	38.01	28.892281922949
3	206580	38.11	28.805438809836
3	207137	38.21	28.70724945462
3	207694	38.31	28.599752228983
3	208251	38.41	28.484619307673
3	208808	38.51	28.363222456397
3	209365	38.61	28.236687000824
3	209922	38.71	28.105936099952
3	210479	38.81	27.971727065696
3	211036	38.91	27.834681157597
3	211601	39.01	27.695308024865
3	212158	39.11	27.554025757361
3	212715	39.21	27.411177334393
3	213272	39.31	27.267044118453
3	213829	39.41	27.121903952361
3	214386	39.51	26.979362635632
3	214943	39.61	26.845860605106
3	215500	39.71	26.727296019558
3	216057	39.81	26.628645776441
3	216614	39.91	26.553954480566
3	217179	40.01	26.506337085291
3	217736	40.11	26.487967210471
3	218293	40.21	26.498513881454
3	218850	40.31	26.534113580083
3	219407	40.41	26.590265487348
3	219964	40.51	26.663277364026
3	220521	40.61	26.750120287949
3	221078	40.71	26.848309487963
3	221635	40.81	26.95580658628
3	222192	40.91	27.070939403145
3	222757	41.01	27.192336168738
3	223314	41.11	27.318871554021
3	223871	41.21	27.449622397231
3	224428	41.31	27.583831384185
3	224985	41.41	27.720877253479
3	225542	41.51	27.860250354378
3	226099	41.61	28.001532595767
3	226656	41.71	28.144380997312
3	227213	41.81	28.288514195678
3	227770	41.91	28.433654346815
3	228335	42.01	28.57619561907
3	228892	42.11	28.709697564702
3	229449	42.21	28.828262033717
3	230006	42.31	28.926912136438
3	230563	42.41	29.001603274859
3	231120	42.51	29.04922050151
3	231677	42.61	29.067590201935
3	232234	42.71	29.057043375928
3	232791	42.81	29.021443550125
3	233348	42.91	28.965291538533
3	233913	43.01	28.89227957627
3	234470	43.11	28.805436582139
3	235027	43.21	28.707247324528
3	235584	43.31	28.599750178963
3	236141	43.41	28.484617323338
3	236698	43.51	28.363220525947
3	237255	43.61	28.236685114579
3	237812	43.71	28.105934249971
3	238369	43.81	27.971725245463
3	238926	43.91	27.834679361769
3	239491	44.01	27.695306249056
3	240048	44.11	27.554023997975
3	240605	44.21	27.41117558848
3	241162	44.31	27.267042383592
3	241719	44.41	27.121902226905
3	242276	44.51	26.979360938146
3	242833	44.61	26.845858961009
3	243390	44.71	26.727294448749
3	243947	44.81	26.628644293927
3	244504	44.91	26.553953097073
1	232	1.11	0
1	788	1.21	0
1	1344	1.31	0
1	1900	1.41	0
1	2456	1.51	0
1	3012	1.61	0
1	3568	1.71	0
1	4124	1.81	0
1	4680	1.91	0
1	5244	2.01	0
1	5800	2.11	0
1	6356	2.21	0
1	6912	2.31	0
1	7468	2.41	0
1	8024	2.51	0
1	8580	2.61	0
1	9136	2.71	0
1	9692	2.81	0
1	10248	2.91	0
1	10812	3.01	0
1	11368	3.11	0
1	11924	3.21	0
1	12480	3.31	0
1	13036	3.41	0
1	13592	3.51	0
1	14148	3.61	0
1	14704	3.71	0
1	15260	3.81	0
1	15816	3.91	0
1	16380	4.01	0
1	16936	4.11	0
1	17492	4.21	0
1	18048	4.31	0
1	18604	4.41	0
1	19160	4.51	0
1	19716	4.61	0
1	20272	4.71	0
1	20828	4.81	0
1	21384	4.91	0
1	21949	5.01	0
1	22506	5.11	0
1	23063	5.21	0
1	23620	5.31	0
1	24177	5.41	0
1	24734	5.51	0
1	25291	5.61	0
1	25848	5.71	0
1	26405	5.81	0
1	26962	5.91	0
1	27527	6.01	0
1	28084	6.11	0
1	28641	6.21	0
1	29198	6.31	0
1	29755	6.41	0
1	30312	6.51	0
1	30869	6.61	0
1	31426	6.71	0
1	31983	6.81	0
1	32540	6.91	0
1	33105	7.01	0
1	33662	7.11	0
1	34219	7.21	0
1	34776	7.31	0
1	35333	7.41	0
1	35890	7.51	0
1	36447	7.61	0
1	37004	7.71	0
1	37561	7.81	0
1	38118	7.91	0
1	38683	8.01	0
1	39240	8.11	0
1	39797	8.21	0
1	40354	8.31	0
1	40911	8.41	0
1	41468	8.51	0
1	42025	8.61	0
1	42582	8.71	0
1	43139	8.81	0
1	43696	8.91	0
1	44261	9.01	0
1	44818	9.11	0
1	45375	9.21	0
1	45932	9.31	0
1	46489	9.41	0
1	47046	9.51	0
1	47603	9.61	0
1	48160	9.71	0
1	48717	9.81	0
1	49274	9.91	0
1	49839	10.01	0
1	50396	10.11	0
1	50953	10.21	0
1	51510	10.31	0
1	52067	10.41	0
1	52624	10.51	0
1	53181	10.61	0
1	53738	10.71	0
1	54295	10.81	0
1	54852	10.91	0
1	55417	11.01	0
1	55974	11.11	0
1	56531	11.21	0
1	57088	11.31	0
1	57645	11.41	0
1	58202	11.51	0
1	58759	11.61	0
1	59316	11.71	0
1	59873	11.81	0
1	60430	11.91	0
1	60995	12.01	0
1	61552	12.11	0
1	62109	12.21	0
1	62666	12.31	0
1	63223	12.41	0
1	63780	12.51	0
1	64337	12.61	0
1	64894	12.71	0
1	65451	12.81	0
1	66008	12.91	0
1	66573	13.01	0
1	67130	13.11	0
1	67687	13.21	0
1	68244	13.31	0
1	68801	13.41	0
1	69358	13.51	0
1	69915	13.61	0
1	70472	13.71	0
1	71029	13.81	0
1	71586	13.91	0
1	72151	14.01	0
1	72708	14.11	0
1	73265	14.21	0
1	73822	14.31	0
1	74379	14.41	0
1	74936	14.51	0
1	75493	14.61	0
1	76050	14.71	0
1	76607	14.81	0
1	77164	14.91	0
1	77729	15.01	0
1	78286	15.11	0
1	78843	15.21	0
1	79400	15.31	0
1	79957	15.41	0
1	80514	15.51	0
1	81071	15.61	0
1	81628	15.71	0
1	82185	15.81	0
1	82742	15.91	0
1	83307	16.01	0
1	83864	16.11	0
1	84421	16.21	0
1	84978	16.31	0
1	85535	16.41	0
1	86092	16.51	0
1	86649	16.61	0
1	87206	16.71	0
1	87763	16.81	0
1	88320	16.91	0
1	88885	17.01	0
1	89442	17.11	0
1	89999	17.21	0
1	90556	17.31	0
1	91113	17.41	0
1	91670	17.51	0
1	92227	17.61	0
1	92784	17.71	0
1	93341	17.81	0
1	93898	17.91	0
1	94463	18.01	0
1	95020	18.11	0
1	95577	18.21	0
1	96134	18.31	0
1	96691	18.41	0
1	97248	18.51	0
1	97805	18.61	0
1	98362	18.71	0
1	98919	18.81	0
1	99476	18.91	0
1	100041	19.01	0
1	100598	19.11	0
1	101155	19.21	0
1	101712	19.31	0
1	102269	19.41	0
1	102826	19.51	0
1	103383	19.61	0
1	103940	19.71	0
1	104497	19.81	0
1	105054	19.91	0
1	105619	20.01	0
1	106176	20.11	0
1	106733	20.21	0
1	107290	20.31	0
1	107847	20.41	0
1	108404	20.51	0
1	108961	20.61	0
1	109518	20.71	0
1	110075	20.81	0
1	110632	20.91	0
1	111197	21.01	0
1	111754	21.11	0
1	112311	21.21	0
1	112868	21.31	0
1	113425	21.41	0
1	113982	21.51	0
1	114539	21.61	0
1	115096	21.71	0
1	115653	21.81	0
1	116210	21.91	0
1	116775	22.01	0
1	117332	22.11	0
1	117889	22.21	0
1	118446	22.31	0
1	119003	22.41	0
1	119560	22.51	0
1	120117	22.61	0
1	120674	22.71	0
1	121231	22.81	0
1	121788	22.91	0
1	122353	23.01	0
1	122910	23.11	0
1	123467	23.21	0
1	124024	23.31	0
1	124581	23.41	0
1	125138	23.51	0
1	125695	23.61	0
1	126252	23.71	0
1	126809	23.81	0
1	127366	23.91	0
1	127931	24.01	0
1	128488	24.11	0
1	129045	24.21	0
1	129602	24.31	0
1	130159	24.41	0
1	130716	24.51	0
1	131273	24.61	0
1	131830	24.71	0
1	132387	24.81	0
1	132944	24.91	0
1	133509	25.01	0
1	134066	25.11	0
1	134623	25.21	0
1	135180	25.31	0
1	135737	25.41	0
1	136294	25.51	0
1	136851	25.61	0
1	137408	25.71	0
1	137965	25.81	0
1	138522	25.91	0
1	139087	26.01	0
1	139644	26.11	0
1	140201	26.21	0
1	140758	26.31	0
1	141315	26.41	0
1	141872	26.51	0
1	142429	26.61	0
1	142986	26.71	0
1	143543	26.81	0
1	144100	26.91	0
1	144665	27.01	0
1	145222	27.11	0
1	145779	27.21	0
1	146336	27.31	0
1	146893	27.41	0
1	147450	27.51	0
1	148007	27.61	0
1	148564	27.71	0
1	149121	27.81	0
1	149678	27.91	0
1	150243	28.01	0
1	150800	28.11	0
1	151357	28.21	0
1	151914	28.31	0
1	152471	28.41	0
1	153028	28.51	0
1	153585	28.61	0
1	154142	28.71	0
1	154699	28.81	0
1	155256	28.91	0
1	155821	29.01	0
1	156378	29.11	0
1	156935	29.21	0
1	157492	29.31	0
1	158049	29.41	0
1	158606	29.51	0
1	159163	29.61	0
1	159720	29.71	0
1	160277	29.81	0
1	160834	29.91	0
1	161399	30.01	0
1	161956	30.11	0
1	162513	30.21	0
1	163070	30.31	0
1	163627	30.41	0
1	164184	30.51	0
1	164741	30.61	0
1	165298	30.71	0
1	165855	30.81	0
1	166412	30.91	0
1	166977	31.01	0
1	167534	31.11	0
1	168091	31.21	0
1	168648	31.31	0
1	169205	31.41	0
1	169762	31.51	0
1	170319	31.61	0
1	170876	31.71	0
1	171433	31.81	0
1	171990	31.91	0
1	172555	32.01	0
1	173112	32.11	0
1	173669	32.21	0
1	174226	32.31	0
1	174783	32.41	0
1	175340	32.51	0
1	175897	32.61	0
1	176454	32.71	0
1	177011	32.81	0
1	177568	32.91	0
1	178133	33.01	0
1	178690	33.11	0
1	179247	33.21	0
1	179804	33.31	0
1	180361	33.41	0
1	180918	33.51	0
1	181475	33.61	0
1	182032	33.71	0
1	182589	33.81	0
1	183146	33.91	0
1	183711	34.01	0
1	184268	34.11	0
1	184825	34.21	0
1	185382	34.31	0
1	185939	34.41	0
1	186496	34.51	0
1	187053	34.61	0
1	187610	34.71	0
1	188167	34.81	0
1	188724	34.91	0
1	189289	35.01	0
1	189846	35.11	0
1	190403	35.21	0
1	190960	35.31	0
1	191517	35.41	0
1	192074	35.51	0
1	192631	35.61	0
1	193188	35.71	0
1	193745	35.81	0
1	194302	35.91	0
1	194867	36.01	0
1	195424	36.11	0
1	195981	36.21	0
1	196538	36.31	0
1	197095	36.41	0
1	197652	36.51	0
1	198209	36.61	0
1	198766	36.71	0
1	199323	36.81	0
1	199880	36.91	0
1	200445	37.01	0
1	201002	37.11	0
1	201559	37.21	0
1	202116	37.31	0
1	202673	37.41	0
1	203230	37.51	0
1	203787	37.61	0
1	204344	37.71	0
1	204901	37.81	0
1	205458	37.91	0
1	206023	38.01	0
1	206580	38.11	0
1	207137	38.21	0
1	207694	38.31	0
1	208251	38.41	0
1	208808	38.51	0
1	209365	38.61	0
1	209922	38.71	0
1	210479	38.81	0
1	211036	38.91	0
1	211601	39.01	0
1	212158	39.11	0
1	212715	39.21	0
1	213272	39.31	0
1	213829	39.41	0
1	214386	39.51	0
1	214943	39.61	0
1	215500	39.71	0
1	216057	39.81	0
1	216614	39.91	0
1	217179	40.01	0
1	217736	40.11	0
1	218293	40.21	0
1	218850	40.31	0
1	219407	40.41	0
1	219964	40.51	0
1	220521	40.61	0
1	221078	40.71	0
1	221635	40.81	0
1	222192	40.91	0
1	222757	41.01	0
1	223314	41.11	0
1	223871	41.21	0
1	224428	41.31	0
1	224985	41.41	0
1	225542	41.51	0
1	226099	41.61	0
1	226656	41.71	0
1	227213	41.81	0
1	227770	41.91	0
1	228335	42.01	0
1	228892	42.11	0
1	229449	42.21	0
1	230006	42.31	0
1	230563	42.41	0
1	231120	42.51	0
1	231677	42.61	0
1	232234	42.71	0
1	232791	42.81	0
1	233348	42.91	0
1	233913	43.01	0
1	234470	43.11	0
1	235027	43.21	0
1	235584	43.31	0
1	236141	43.41	0
1	236698	43.51	0
1	237255	43.61	0
1	237812	43.71	0
1	238369	43.81	0
1	238926	43.91	0
1	239491	44.01	0
1	240048	44.11	0
1	240605	44.21	0
1	241162	44.31	0
1	241719	44.41	0
1	242276	44.51	0
1	242833	44.61	0
1	243390	44.71	0
1	243947	44.81	0
1	244504	44.91	0
0	232	1.11	-1
0	788	1.21	-1
0	1344	1.31	-1
0	1900	1.41	-1
0	2456	1.51	-1
0	3012	1.61	-1
0	3568	1.71	-1
0	4124	1.81	-1
0	4680	1.91	-1
0	5244	2.01	-1
0	5800	2.11	-1
0	6356	2.21	-1
0	6912	2.31	-1
0	7468	2.41	-1
0	8024	2.51	-1
0	8580	2.61	-1
0	9136	2.71	-1
0	9692	2.81	-1
0	10248	2.91	-1
0	10812	3.01	-1
0	11368	3.11	-1
0	11924	3.21	-1
0	12480	3.31	-1
0	13036	3.41	-1
0	13592	3.51	-1
0	14148	3.61	-1
0	14704	3.71	-1
0	15260	3.81	-1
0	15816	3.91	-1
0	16380	4.01	-1
0	16936	4.11	-1
0	17492	4.21	-1
0	18048	4.31	-1
0	18604	4.41	-1
0	19160	4.51	-1
0	19716	4.61	-1
0	20272	4.71	-1
0	20828	4.81	-1
0	21384	4.91	-1
0	21949	5.01	-1
0	22506	5.11	-1
0	23063	5.21	-1
0	23620	5.31	-1
0	24177	5.41	-1
0	24734	5.51	-1
0	25291	5.61	-1
0	25848	5.71	-1
0	26405	5.81	-1
0	26962	5.91	-1
0	27527	6.01	-1
0	28084	6.11	-1
0	28641	6.21	-1
0	29198	6.31	-1
0	29755	6.41	-1
0	30312	6.51	-1
0	30869	6.61	-1
0	31426	6.71	-1
0	31983	6.81	-1
0	32540	6.91	-1
0	33105	7.01	-1
0	33662	7.11	-1
0	34219	7.21	-1
0	34776	7.31	-1
0	35333	7.41	-1
0	35890	7.51	-1
0	36447	7.61	-1
0	37004	7.71	-1
0	37561	7.81	-1
0	38118	7.91	-1
0	38683	8.01	-1
0	39240	8.11	-1
0	39797	8.21	-1
0	40354	8.31	-1
0	40911	8.41	-1
0	41468	8.51	-1
0	42025	8.61	-1
0	42582	8.71	-1
0	43139	8.81	-1
0	43696	8.91	-1
0	44261	9.01	-1
0	44818	9.11	-1
0	45375	9.21	-1
0	45932	9.31	-1
0	46489	9.41	-1
0	47046	9.51	-1
0	47603	9.61	-1
0	48160	9.71	-1
0	48717	9.81	-1
0	49274	9.91	-1
0	49839	10.01	-1
0	50396	10.11	-1
0	50953	10.21	-1
0	51510	10.31	-1
0	52067	10.41	-1
0	52624	10.51	-1
0	53181	10.61	-1
0	53738	10.71	-1
0	54295	10.81	-1
0	54852	10.91	-1
0	55417	11.01	-1
0	55974	11.11	-1
0	56531	11.21	-1
0	57088	11.31	-1
0	57645	11.41	-1
0	58202	11.51	-1
0	58759	11.61	-1
0	59316	11.71	-1
0	59873	11.81	-1
0	60430	11.91	-1
0	60995	12.01	-1
0	61552	12.11	-1
0	62109	12.21	-1
0	62666	12.31	-1
0	63223	12.41	-1
0	63780	12.51	-1
0	64337	12.61	-1
0	64894	12.71	-1
0	65451	12.81	-1
[...]
35	211486	38.997801366439	0.09999852363
35	212051	39.097799888048	0.099998521609
35	212608	39.197811407534	0.100011519486
35	213165	39.297809924797	0.099998517263
35	213722	39.397808439731	0.099998514934
35	214279	39.497806952236	0.099998512505
35	214836	39.597805462213	0.099998509977
35	215393	39.697803969571	0.099998507358
35	215950	39.797802474232	0.099998504661
35	216507	39.897800976133	0.099998501901
35	217064	39.997799475228	0.099998499095
35	217629	40.097810971488	0.10001149626
35	218186	40.197809464905	0.099998493417
35	218743	40.297807955493	0.099998490588
35	219300	40.397806443276	0.099998487783
35	219857	40.497804928294	0.099998485018
35	220414	40.597803410598	0.099998482304
35	220971	40.697801890243	0.099998479645
35	221528	40.797800367296	0.099998477053
35	222085	40.897798841828	0.099998474532
35	222642	40.997810313916	0.100011472088
35	223207	41.097808783639	0.099998469723
35	223764	41.19780725108	0.099998467441
35	224321	41.297805716326	0.099998465246
35	224878	41.397804179463	0.099998463137
35	225435	41.497802640585	0.099998461122
35	225992	41.597801099783	0.099998459198
35	226549	41.697799557149	0.099998457366
35	227106	41.797811012778	0.100011455629
35	227663	41.897809466767	0.099998453989
35	228220	41.99780791921	0.099998452443
35	228785	42.097806370201	0.099998450991
35	229342	42.197804819825	0.099998449624
35	229899	42.297803268154	0.099998448329
35	230456	42.39780171525	0.099998447096
35	231013	42.497800161156	0.099998445906
35	231570	42.597798605896	0.09999844474
35	232127	42.697810049473	0.100011443577
35	232684	42.797808491877	0.099998442404
35	233241	42.897806933082	0.099998441205
35	233798	42.997805373045	0.099998439963
35	234363	43.097803811721	0.099998438676
35	234920	43.197802249046	0.099998437325
35	235477	43.297800684959	0.099998435913
35	236034	43.397799119392	0.099998434433
35	236591	43.497810552268	0.100011432876
35	237148	43.597808983512	0.099998431244
35	237705	43.697807413042	0.09999842953
35	238262	43.797805840778	0.099998427736
35	238819	43.897804266634	0.099998425856
35	239376	43.997802690522	0.099998423888
35	239941	44.097801112357	0.099998421835
35	240498	44.197799532051	0.099998419694
35	241055	44.297810949514	0.100011417463
35	241612	44.397809364658	0.099998415144
35	242169	44.497807777392	0.099998412734
35	242726	44.59780618763	0.099998410238
35	243283	44.697804595294	0.099998407664
35	243840	44.79780300032	0.099998405026
35	244397	44.897801402654	0.099998402334
36	1238	1.29780210076	0.099998587072
36	1794	1.397800687832	0.099998587072
36	2350	1.497799274904	0.099998587072
36	2906	1.597810861976	0.100011587072
36	3462	1.697809449048	0.099998587072
36	4018	1.79780803612	0.099998587072
36	4574	1.897806623192	0.099998587072
36	5130	1.997805210264	0.099998587072
36	5694	2.097803797336	0.099998587072
36	6250	2.197802384408	0.099998587072
36	6806	2.29780097148	0.099998587072
36	7362	2.397799558552	0.099998587072
36	7918	2.497811145624	0.100011587072
36	8474	2.597809732696	0.099998587072
36	9030	2.697808319768	0.099998587072
36	9586	2.79780690684	0.099998587072
36	10142	2.897805493912	0.099998587072
36	10698	2.997804080984	0.099998587072
36	11262	3.097802668056	0.099998587072
36	11818	3.197801255128	0.099998587072
36	12374	3.2977998422	0.099998587072
36	12930	3.397811429272	0.100011587072
36	13486	3.497810016344	0.099998587072
36	14042	3.597808603416	0.099998587072
36	14598	3.697807190488	0.099998587072
36	15154	3.79780577756	0.099998587072
36	15710	3.897804364632	0.099998587072
36	16266	3.997802951704	0.099998587072
36	16830	4.097801538776	0.099998587072
36	17386	4.197800125848	0.099998587072
36	17942	4.29779871292	0.099998587072
36	18498	4.397810299992	0.100011587072
36	19054	4.497808887064	0.099998587072
36	19610	4.597807474136	0.099998587072
36	20166	4.697806061208	0.099998587072
36	20722	4.79780464828	0.099998587072
36	21278	4.897803235352	0.099998587072
36	21834	4.997801822424	0.099998587072
36	22399	5.097800409496	0.099998587072
36	22956	5.19779899657	0.099998587074
36	23513	5.297810583649	0.100011587079
36	24070	5.397809170742	0.099998587093
36	24627	5.497807757864	0.099998587122
36	25184	5.597806345034	0.09999858717
36	25741	5.697804932265	0.099998587231
36	26298	5.797803519578	0.099998587313
36	26855	5.897802106985	0.099998587407
36	27412	5.997800694498	0.099998587513
36	27977	6.09779928213	0.099998587632
36	28534	6.197810869885	0.100011587755
36	29091	6.297809457773	0.099998587888
36	29648	6.397808045799	0.099998588026
36	30205	6.497806633968	0.099998588169
36	30762	6.597805222283	0.099998588315
36	31319	6.697803810746	0.099998588463
36	31876	6.797802399359	0.099998588613
36	32433	6.897800988115	0.099998588756
36	32990	6.997799577005	0.09999858889
36	33555	7.097811166015	0.10001158901
36	34112	7.197809755127	0.099998589112
36	34669	7.297808344323	0.099998589196
36	35226	7.397806933578	0.099998589255
36	35783	7.497805522866	0.099998589288
36	36340	7.597804112162	0.099998589296
36	36897	7.697802701443	0.099998589281
36	37454	7.797801290689	0.099998589246
36	38011	7.897799879883	0.099998589194
36	38568	7.997811469015	0.100011589132
36	39133	8.097810058068	0.099998589053
36	39690	8.197808647036	0.099998588968
36	40247	8.297807235908	0.099998588872
36	40804	8.397805824679	0.099998588771
36	41361	8.497804413345	0.099998588666
36	41918	8.597803001899	0.099998588554
36	42475	8.697801590336	0.099998588437
36	43032	8.797800178653	0.099998588317
36	43589	8.897798766845	0.099998588192
36	44146	8.997810354911	0.100011588066
36	44711	9.097808942846	0.099998587935
36	45268	9.19780753065	0.099998587804
36	45825	9.297806118319	0.099998587669
36	46382	9.397804705851	0.099998587532
36	46939	9.497803293244	0.099998587393
36	47496	9.597801880499	0.099998587255
36	48053	9.697800467618	0.099998587119
36	48610	9.797799054608	0.09999858699
36	49167	9.897810641484	0.100011586876
36	49724	9.997809228267	0.099998586783
36	50289	10.097807814981	0.099998586714
36	50846	10.197806401649	0.099998586668
36	51403	10.297804988302	0.099998586653
36	51960	10.397803574964	0.099998586662
36	52517	10.49780216166	0.099998586696
36	53074	10.597800748409	0.099998586749
36	53631	10.697799335228	0.099998586819
36	54188	10.79781092213	0.100011586902
36	54745	10.897809509126	0.099998586996
36	55302	10.997808096223	0.099998587097
36	55867	11.097806683431	0.099998587208
36	56424	11.197805270757	0.099998587326
36	56981	11.297803858205	0.099998587448
36	57538	11.397802445779	0.099998587574
36	58095	11.497801033485	0.099998587706
36	58652	11.597799621325	0.09999858784
36	59209	11.697811209305	0.10001158798
36	59766	11.797809797423	0.099998588118
36	60323	11.897808385682	0.099998588259
36	60880	11.997806974087	0.099998588405
36	61445	12.097805562633	0.099998588546
36	62002	12.19780415131	0.099998588677
36	62559	12.297802740104	0.099998588794
36	63116	12.397801328997	0.099998588893
36	63673	12.497799917968	0.099998588971
36	64230	12.59781150699	0.100011589022
36	64787	12.697810096036	0.099998589046
36	65344	12.79780868508	0.099998589044
36	65901	12.897807274097	0.099998589017
36	66458	12.99780586307	0.099998588973
36	67023	13.09780445198	0.09999858891
36	67580	13.197803040813	0.099998588833
36	68137	13.29780162956	0.099998588747
36	68694	13.397800218209	0.099998588649
36	69251	13.497798806753	0.099998588544
36	69808	13.597810395186	0.100011588433
36	70365	13.6978089835	0.099998588314
36	70922	13.797807571693	0.099998588193
36	71479	13.897806159759	0.099998588066
36	72036	13.997804747695	0.099998587936
36	72601	14.097803335498	0.099998587803
36	73158	14.197801923165	0.099998587667
36	73715	14.297800510693	0.099998587528
36	74272	14.39779909808	0.099998587387
36	74829	14.497810685325	0.100011587245
36	75386	14.597809272428	0.099998587103
36	75943	14.697807859398	0.09999858697
36	76500	14.797806446243	0.099998586845
36	77057	14.897805032986	0.099998586743
36	77614	14.997803619644	0.099998586658
36	78179	15.097802206245	0.099998586601
36	78736	15.197800792815	0.09999858657
36	79293	15.297799379382	0.099998586567
36	79850	15.39781096597	0.100011586588
36	80407	15.497809552599	0.099998586629
36	80964	15.597808139289	0.09999858669
36	81521	15.697806726054	0.099998586765
36	82078	15.797805312903	0.099998586849
36	82635	15.897803899848	0.099998586945
36	83192	15.997802486898	0.09999858705
36	83757	16.097801074058	0.09999858716
36	84314	16.197799661336	0.099998587278
36	84871	16.297811248735	0.100011587399
36	85428	16.397809836263	0.099998587528
36	85985	16.497808423921	0.099998587658
36	86542	16.597807011712	0.099998587791
36	87099	16.697805599639	0.099998587927
36	87656	16.797804187704	0.099998588065
36	88213	16.897802775911	0.099998588207
36	88770	16.99780136426	0.099998588349
36	89335	17.097799952748	0.099998588488
36	89892	17.197811541371	0.100011588623
36	90449	17.297810130112	0.099998588741
36	91006	17.397808718954	0.099998588842
36	91563	17.497807307876	0.099998588922
36	92120	17.597805896851	0.099998588975
36	92677	17.697804485851	0.099998589
36	93234	17.797803074852	0.099998589001
36	93791	17.897801663829	0.099998588977
36	94348	17.99780025276	0.099998588931
36	94913	18.097798841626	0.099998588866
36	95470	18.197810430416	0.10001158879
36	96027	18.297809019117	0.099998588701
36	96584	18.397807607719	0.099998588602
36	97141	18.497806196214	0.099998588495
36	97698	18.597804784596	0.099998588382
36	98255	18.697803372857	0.099998588261
36	98812	18.797801960991	0.099998588134
36	99369	18.897800548996	0.099998588005
36	99926	18.997799136867	0.099998587871
36	100491	19.097810724602	0.100011587735
36	101048	19.197809312197	0.099998587595
36	101605	19.297807899651	0.099998587454
36	102162	19.397806486961	0.09999858731
36	102719	19.497805074124	0.099998587163
36	103276	19.597803661143	0.099998587019
36	103833	19.697802248025	0.099998586882
36	104390	19.797800834784	0.099998586759
36	104947	19.897799421436	0.099998586652
36	105504	19.997811008005	0.100011586569
36	106069	20.097809594514	0.099998586509
36	106626	20.197808180991	0.099998586477
36	107183	20.297806767464	0.099998586473
36	107740	20.397805353959	0.099998586495
36	108297	20.497803940494	0.099998586535
36	108854	20.597802527085	0.099998586591
36	109411	20.69780111375	0.099998586665
36	109968	20.7977997005	0.09999858675
36	110525	20.897811287344	0.100011586844
36	111082	20.997809874291	0.099998586947
36	111647	21.097808461345	0.099998587054
36	112204	21.197807048516	0.099998587171
36	112761	21.297805635807	0.099998587291
36	113318	21.397804223222	0.099998587415
36	113875	21.497802810766	0.099998587544
36	114432	21.597801398442	0.099998587676
36	114989	21.697799986252	0.09999858781
36	115546	21.797798574198	0.099998587946
36	116103	21.897810162282	0.100011588084
36	116660	21.997808750511	0.099998588229
36	117225	22.097807338877	0.099998588366
36	117782	22.197805927373	0.099998588496
36	118339	22.297804515987	0.099998588614
36	118896	22.397803104702	0.099998588715
36	119453	22.497801693496	0.099998588794
36	120010	22.597800282343	0.099998588847
36	120567	22.697798871214	0.099998588871
36	121124	22.797810460086	0.100011588872
36	121681	22.897809048931	0.099998588845
36	122238	22.997807637729	0.099998588798
36	122803	23.097806226463	0.099998588734
36	123360	23.197804815117	0.099998588654
36	123917	23.297803403683	0.099998588566
36	124474	23.397801992148	0.099998588465
36	125031	23.497800580505	0.099998588357
36	125588	23.597799168747	0.099998588242
36	126145	23.697810756868	0.100011588121
36	126702	23.797809344861	0.099998587993
36	127259	23.897807932726	0.099998587865
36	127816	23.997806520457	0.099998587731
36	128381	24.09780510805	0.099998587593
36	128938	24.197803695502	0.099998587452
36	129495	24.297802282811	0.099998587309
36	130052	24.397800869976	0.099998587165
36	130609	24.497799456992	0.099998587016
36	131166	24.597811043865	0.100011586873
36	131723	24.697809630603	0.099998586738
36	132280	24.797808217215	0.099998586612
36	132837	24.89780680372	0.099998586505
36	133394	24.99780539014	0.09999858642
36	133959	25.097803976502	0.099998586362
36	134516	25.197802562831	0.099998586329
36	135073	25.297801149156	0.099998586325
36	135630	25.3977997355	0.099998586344
36	136187	25.497811321886	0.100011586386
36	136744	25.59780990833	0.099998586444
36	137301	25.697808494845	0.099998586515
36	137858	25.797807081445	0.0999985866
36	138415	25.897805668138	0.099998586693
36	138972	25.997804254933	0.099998586795
36	139537	26.097802841838	0.099998586905
36	140094	26.197801428859	0.099998587021
36	140651	26.297800015997	0.099998587138
36	141208	26.397798603262	0.099998587265
36	141765	26.497810190654	0.100011587392
36	142322	26.597808778179	0.099998587525
36	142879	26.697807365837	0.099998587658
36	143436	26.797805953633	0.099998587796
36	143993	26.897804541566	0.099998587933
36	144550	26.997803129641	0.099998588075
36	145115	27.097801717855	0.099998588214
36	145672	27.1978003062	0.099998588345
36	146229	27.297798894663	0.099998588463
36	146786	27.397810483225	0.100011588562
36	147343	27.497809071866	0.099998588641
36	147900	27.597807660563	0.099998588697
36	148457	27.697806249285	0.099998588722
36	149014	27.797804838005	0.09999858872
36	149571	27.897803426698	0.099998588693
36	150128	27.997802015346	0.099998588648
36	150693	28.097800603931	0.099998588585
36	151250	28.197799192435	0.099998588504
36	151807	28.297810780851	0.100011588416
36	152364	28.397809369166	0.099998588315
36	152921	28.497807957374	0.099998588208
36	153478	28.597806545468	0.099998588094
36	154035	28.69780513344	0.099998587972
36	154592	28.797803721288	0.099998587848
36	155149	28.897802309004	0.099998587716
36	155706	28.997800896588	0.099998587584
36	156271	29.097799484032	0.099998587444
36	156828	29.197811071338	0.100011587306
36	157385	29.297809658501	0.099998587163
36	157942	29.397808245519	0.099998587018
36	158499	29.497806832392	0.099998586873
36	159056	29.597805419119	0.099998586727
36	159613	29.697804005711	0.099998586592
36	160170	29.797802592178	0.099998586467
36	160727	29.897801178538	0.09999858636
36	161284	29.997799764814	0.099998586276
36	161849	30.097811351034	0.10001158622
36	162406	30.19780993722	0.099998586186
36	162963	30.297808523408	0.099998586188
36	163520	30.397807109629	0.099998586221
36	164077	30.497805695917	0.099998586288
36	164634	30.597804282304	0.099998586387
36	165191	30.697802868829	0.099998586525
36	165748	30.797801455528	0.099998586699
36	166305	30.897800042439	0.099998586911
36	166862	30.997798629599	0.09999858716
36	167427	31.097810217046	0.100011587447
36	167984	31.19780880482	0.099998587774
36	168541	31.297807392962	0.099998588142
36	169098	31.397805981514	0.099998588552
36	169655	31.497804570515	0.099998589001
36	170212	31.59780316001	0.099998589495
36	170769	31.697801750036	0.099998590026
36	171326	31.797800340643	0.099998590607
36	171883	31.897798931871	0.099998591228
36	172440	31.997810523766	0.100011591895
36	173005	32.097809116368	0.099998592602
36	173562	32.197807709711	0.099998593343
36	174119	32.297806303814	0.099998594103
36	174676	32.397804898686	0.099998594872
36	175233	32.49780349432	0.099998595634
36	175790	32.597802090687	0.099998596367
36	176347	32.697800687744	0.099998597057
36	176904	32.797799285426	0.099998597682
36	177461	32.897810883656	0.10001159823
36	178018	32.997809482344	0.099998598688
36	178583	33.097808081391	0.099998599047
36	179140	33.197806680688	0.099998599297
36	179697	33.297805280124	0.099998599436
36	180254	33.397803879582	0.099998599458
36	180811	33.497802478938	0.099998599356
36	181368	33.597801078069	0.099998599131
36	181925	33.697799676846	0.099998598777
36	182482	33.797811275143	0.100011598297
36	183039	33.897809872825	0.099998597682
36	183596	33.997808469764	0.099998596939
36	184161	34.097807065829	0.099998596065
36	184718	34.197805660885	0.099998595056
36	185275	34.2978042548	0.099998593915
36	185832	34.397802847442	0.099998592642
36	186389	34.49780143868	0.099998591238
36	186946	34.597800028385	0.099998589705
36	187503	34.697798616438	0.099998588053
36	188060	34.79781020273	0.100011586292
36	188617	34.897808787172	0.099998584442
36	189174	34.997807369689	0.099998582517
36	189739	35.097805950226	0.099998580537
36	190296	35.197804528748	0.099998578522
36	190853	35.297803105238	0.09999857649
36	191410	35.397801679696	0.099998574458
36	191967	35.497800252135	0.099998572439
36	192524	35.597798822581	0.099998570446
36	193081	35.697810391065	0.100011568484
36	193638	35.797808957625	0.09999856656
36	194195	35.897807522311	0.099998564686
36	194752	35.997806085171	0.09999856286
36	195317	36.097804646263	0.099998561092
36	195874	36.197803205645	0.099998559382
36	196431	36.297801763383	0.099998557738
36	196988	36.397800319537	0.099998556154
36	197545	36.497798874177	0.09999855464
36	198102	36.597810427375	0.100011553198
36	198659	36.6978089792	0.099998551825
36	199216	36.797807529726	0.099998550526
36	199773	36.897806079029	0.099998549303
36	200330	36.997804627179	0.09999854815
36	200895	37.097803174253	0.099998547074
36	201452	37.197801720314	0.099998546061
36	202009	37.297800265414	0.0999985451
36	202566	37.397798809598	0.099998544184
36	203123	37.497810352884	0.100011543286
36	203680	37.597808895281	0.099998542397
36	204237	37.697807436777	0.099998541496
36	204794	37.797805977339	0.099998540562
36	205351	37.897804516921	0.099998539582
36	205908	37.997803055469	0.099998538548
36	206473	38.097801592915	0.099998537446
36	207030	38.197800129183	0.099998536268
36	207587	38.297798664195	0.099998535012
36	208144	38.397810197864	0.100011533669
36	208701	38.497808730098	0.099998532234
36	209258	38.597807260806	0.099998530708
36	209815	38.697805789891	0.099998529085
36	210372	38.79780431726	0.099998527369
36	210929	38.897802842809	0.099998525549
36	211486	38.997801366439	0.09999852363
36	212051	39.097799888048	0.099998521609
36	212608	39.197811407534	0.100011519486
36	213165	39.297809924797	0.099998517263
36	213722	39.397808439731	0.099998514934
36	214279	39.497806952236	0.099998512505
36	214836	39.597805462213	0.099998509977
36	215393	39.697803969571	0.099998507358
36	215950	39.797802474232	0.099998504661
36	216507	39.897800976133	0.099998501901
36	217064	39.997799475228	0.099998499095
36	217629	40.097810971488	0.10001149626
36	218186	40.197809464905	0.099998493417
36	218743	40.297807955493	0.099998490588
36	219300	40.397806443276	0.099998487783
36	219857	40.497804928294	0.099998485018
36	220414	40.597803410598	0.099998482304
36	220971	40.697801890243	0.099998479645
36	221528	40.797800367296	0.099998477053
36	222085	40.897798841828	0.099998474532
36	222642	40.997810313916	0.100011472088
36	223207	41.097808783639	0.099998469723
36	223764	41.19780725108	0.099998467441
36	224321	41.297805716326	0.099998465246
36	224878	41.397804179463	0.099998463137
36	225435	41.497802640585	0.099998461122
36	225992	41.597801099783	0.099998459198
36	226549	41.697799557149	0.099998457366
36	227106	41.797811012778	0.100011455629
36	227663	41.897809466767	0.099998453989
36	228220	41.99780791921	0.099998452443
36	228785	42.097806370201	0.099998450991
36	229342	42.197804819825	0.099998449624
36	229899	42.297803268154	0.099998448329
36	230456	42.39780171525	0.099998447096
36	231013	42.497800161156	0.099998445906
36	231570	42.597798605896	0.09999844474
36	232127	42.697810049473	0.100011443577
36	232684	42.797808491877	0.099998442404
36	233241	42.897806933082	0.099998441205
36	233798	42.997805373045	0.099998439963
36	234363	43.097803811721	0.099998438676
36	234920	43.197802249046	0.099998437325
36	235477	43.297800684959	0.099998435913
36	236034	43.397799119392	0.099998434433
36	236591	43.497810552268	0.100011432876
36	237148	43.597808983512	0.099998431244
36	237705	43.697807413042	0.09999842953
36	238262	43.797805840778	0.099998427736
36	238819	43.897804266634	0.099998425856
36	239376	43.997802690522	0.099998423888
36	239941	44.097801112357	0.099998421835
36	240498	44.197799532051	0.099998419694
36	241055	44.297810949514	0.100011417463
36	241612	44.397809364658	0.099998415144
36	242169	44.497807777392	0.099998412734
36	242726	44.59780618763	0.099998410238
36	243283	44.697804595294	0.099998407664
36	243840	44.79780300032	0.099998405026
36	244397	44.897801402654	0.099998402334
