file 1533551 1501771642                                         
version 2
run SinusoidalJammingDetail-238-20170803-16:46:55-40775
attr CACCSpacing 5
attr attackAcc -30
attr attackPos 7
attr attackSpeed 150
attr attackStart 32.5
attr attacker 1
attr beaconInterval 0.1
attr configname SinusoidalJammingDetail
attr controller 3
attr datetime 20170803-16:46:55
attr experiment SinusoidalJammingDetail
attr fakeAcc "(1 == 4)"
attr fakePos "(1 == 2)"
attr fakeSpeed "(1 == 3)"
attr inifile omnetpp_238.ini
attr iterationvars "$leaderSpeed=50, $controller=3, $CACCSpacing=5, $sController=\"CONSENSUS\", $attacker=1, $attackStart=32.5, $attackSpeed=150, $attackPos=7, $attackAcc=-30, $0=5, $1=0.8, $nCars=8, $platoonSize=8, $nLanes=1, $beaconInterval=0.1, $priority=2, $packetSize=200, $ploegH=0.5, $leaderHeadway=1.2, $fakeSpeed=(1 == 3), $fakeAcc=(1 == 4), $fakePos=(1 == 2)"
attr iterationvarsf leaderSpeed=50,controller=3,CACCSpacing=5,sController=CONSENSUS,attacker=1,attackStart=32.5,attackSpeed=150,attackPos=7,attackAcc=-30,5,0.8,nCars=8,platoonSize=8,nLanes=1,beaconInterval=0.1,priority=2,packetSize=200,ploegH=0.5,leaderHeadway=1.2,fakeSpeed=(1_==_3),fakeAcc=(1_==_4),fakePos=(1_==_2)-
attr leaderHeadway 1.2
attr leaderSpeed 50
attr measurement "$leaderSpeed=50, $controller=3, $CACCSpacing=5, $sController=\"CONSENSUS\", $attacker=1, $attackStart=32.5, $attackSpeed=150, $attackPos=7, $attackAcc=-30, $0=5, $1=0.8, $nCars=8, $platoonSize=8, $nLanes=1, $beaconInterval=0.1, $priority=2, $packetSize=200, $ploegH=0.5, $leaderHeadway=1.2, $fakeSpeed=(1 == 3), $fakeAcc=(1 == 4), $fakePos=(1 == 2)"
attr nCars 8
attr nLanes 1
attr network scenario
attr packetSize 200
attr platoonSize 8
attr ploegH 0.5
attr priority 2
attr processid 40775
attr repetition 3
attr replication #3
attr resultdir results
attr runnumber 238
attr sController "\"CONSENSUS\""
attr seedset 3
param **.coreDebug false
param **.debug false
param **.headway 0.1s
param **.numberOfCars 8
param **.numberOfCarsPerPlatoon 8
param **.numberOfLanes 1
param **.numericController 3
param **.traffic.nCars 8
param **.traffic.nLanes 1
param **.traffic.platoonInsertDistance 5m
param **.traffic.platoonInsertHeadway 0.8s
param **.traffic.platoonInsertSpeed 50kmph
param **.traffic.platoonInsertTime "1 s"
param **.traffic.platoonLeaderHeadway 1.2s
param **.traffic.platoonSize 8
param **.traffic.platooningVType "\"vtypeauto\""
param **.traffic_type "\"PlatoonsTrafficManager\""
param *.**.nic.mac1609_4.bitrate 6Mbps
param *.**.nic.mac1609_4.txPower 100mW
param *.**.nic.mac1609_4.useServiceChannel false
param *.**.nic.phy80211p.analogueModels "xmldoc(\"config.xml\")"
param *.**.nic.phy80211p.decider "xmldoc(\"config.xml\")"
param *.**.nic.phy80211p.maxTXPower 100mW
param *.**.nic.phy80211p.sensitivity -94dBm
param *.**.nic.phy80211p.thermalNoise -95dBm
param *.**.nic.phy80211p.usePropagationDelay true
param *.**.nic.phy80211p.useThermalNoise true
param *.annotations.draw false
param *.connectionManager.alpha 2.0
param *.connectionManager.carrierFrequency "5.890e9 Hz"
param *.connectionManager.pMax 100mW
param *.connectionManager.sat -94dBm
param *.connectionManager.sendDirect true
param *.manager.autoShutdown true
param *.manager.commandLine "\"sumo --remote-port $port --seed $seed --configuration-file $configFile\""
param *.manager.configFile "\"./sumocfg/freeway.sumo.cfg\""
param *.manager.host "\"localhost\""
param *.manager.margin 25
param *.manager.moduleDisplayString "\"\""
param *.manager.moduleName "\"node\""
param *.manager.moduleType "\"Car\""
param *.manager.updateInterval 0.01s
param *.node[*].appl.attackStart 32.5s
param *.node[*].appl.attackerType 1
param *.node[*].appl.simulationDuration "60 s"
param *.node[*].appl_type "\"SimplePlatooningApp\""
param *.node[*].helper.nCars 8
param *.node[*].helper.nLanes 1
param *.node[*].helper.platoonSize 8
param *.node[*].helper_type "\"PositionHelper\""
param *.node[*].mobility.x 0
param *.node[*].mobility.y 0
param *.node[*].mobility.z 1.895
param *.node[*].prot.attackStart 32.5s
param *.node[*].prot.attackerType 1
param *.node[*].prot.attackingNode 3
param *.node[*].prot.beaconingInterval 0.1s
param *.node[*].prot.fakeAcc "(1 == 4)"
param *.node[*].prot.fakePos "(1 == 2)"
param *.node[*].prot.fakeSpeed "(1 == 3)"
param *.node[*].prot.maliciousAcc "-30 mpss"
param *.node[*].prot.maliciousSpeed 150kmph
param *.node[*].prot.packetSize 200
param *.node[*].prot.priority 2
param *.node[*].prot.shiftX "7 m"
param *.node[*].prot.useControllerAcceleration true
param *.node[*].protocol_type "\"SimplePlatooningBeaconing\""
param *.node[*].scenario.accHeadway 0.1s
param *.node[*].scenario.caccC1 0.5
param *.node[*].scenario.caccOmegaN "0.2 Hz"
param *.node[*].scenario.caccSpacing 5m
param *.node[*].scenario.caccXi 1
param *.node[*].scenario.controller "\"CONSENSUS\""
param *.node[*].scenario.engineTau "0.5 s"
param *.node[*].scenario.leaderHeadway 1.2s
param *.node[*].scenario.leaderOscillationFrequency "0.2 Hz"
param *.node[*].scenario.leaderSpeed 50kmph
param *.node[*].scenario.oscillationAmplitude "10 kmph"
param *.node[*].scenario.ploegH 0.5s
param *.node[*].scenario.ploegKd 0.7
param *.node[*].scenario.ploegKp 0.2
param *.node[*].scenario.startOscillating "5 s"
param *.node[*].scenario.useRealisticEngine false
param *.node[*].scenario_type "\"SinusoidalScenario\""
param *.node[*].unicast.packetLossRate 0
param *.obstacles.debug false
param *.playgroundSizeX 65000m
param *.playgroundSizeY 25000m
param *.playgroundSizeZ 50m
param *.world.use2D false
param *.world.useTorus false

vector 0  scenario.node[0].appl  distance  ETV
vector 1  scenario.node[0].appl  relativeSpeed  ETV
vector 2  scenario.node[0].appl  nodeId  ETV
vector 6  scenario.node[0].appl  acceleration  ETV
vector 7  scenario.node[0].appl  controllerAcceleration  ETV
vector 3  scenario.node[0].appl  speed  ETV
vector 4  scenario.node[0].appl  posx  ETV
vector 5  scenario.node[0].appl  posy  ETV
vector 22  scenario.node[1].appl  distance  ETV
vector 23  scenario.node[1].appl  relativeSpeed  ETV
vector 24  scenario.node[1].appl  nodeId  ETV
vector 28  scenario.node[1].appl  acceleration  ETV
vector 29  scenario.node[1].appl  controllerAcceleration  ETV
vector 25  scenario.node[1].appl  speed  ETV
vector 26  scenario.node[1].appl  posx  ETV
vector 27  scenario.node[1].appl  posy  ETV
vector 44  scenario.node[2].appl  distance  ETV
vector 45  scenario.node[2].appl  relativeSpeed  ETV
vector 46  scenario.node[2].appl  nodeId  ETV
vector 50  scenario.node[2].appl  acceleration  ETV
vector 51  scenario.node[2].appl  controllerAcceleration  ETV
vector 47  scenario.node[2].appl  speed  ETV
vector 48  scenario.node[2].appl  posx  ETV
vector 49  scenario.node[2].appl  posy  ETV
vector 66  scenario.node[3].appl  distance  ETV
vector 67  scenario.node[3].appl  relativeSpeed  ETV
vector 68  scenario.node[3].appl  nodeId  ETV
vector 72  scenario.node[3].appl  acceleration  ETV
vector 73  scenario.node[3].appl  controllerAcceleration  ETV
vector 69  scenario.node[3].appl  speed  ETV
vector 70  scenario.node[3].appl  posx  ETV
vector 71  scenario.node[3].appl  posy  ETV
vector 88  scenario.node[4].appl  distance  ETV
vector 89  scenario.node[4].appl  relativeSpeed  ETV
vector 90  scenario.node[4].appl  nodeId  ETV
vector 94  scenario.node[4].appl  acceleration  ETV
vector 95  scenario.node[4].appl  controllerAcceleration  ETV
vector 91  scenario.node[4].appl  speed  ETV
vector 92  scenario.node[4].appl  posx  ETV
vector 93  scenario.node[4].appl  posy  ETV
vector 110  scenario.node[5].appl  distance  ETV
vector 111  scenario.node[5].appl  relativeSpeed  ETV
vector 112  scenario.node[5].appl  nodeId  ETV
vector 116  scenario.node[5].appl  acceleration  ETV
vector 117  scenario.node[5].appl  controllerAcceleration  ETV
vector 113  scenario.node[5].appl  speed  ETV
vector 114  scenario.node[5].appl  posx  ETV
vector 115  scenario.node[5].appl  posy  ETV
vector 132  scenario.node[6].appl  distance  ETV
vector 133  scenario.node[6].appl  relativeSpeed  ETV
vector 134  scenario.node[6].appl  nodeId  ETV
vector 138  scenario.node[6].appl  acceleration  ETV
vector 139  scenario.node[6].appl  controllerAcceleration  ETV
vector 135  scenario.node[6].appl  speed  ETV
vector 136  scenario.node[6].appl  posx  ETV
vector 137  scenario.node[6].appl  posy  ETV
vector 154  scenario.node[7].appl  distance  ETV
vector 155  scenario.node[7].appl  relativeSpeed  ETV
vector 156  scenario.node[7].appl  nodeId  ETV
vector 160  scenario.node[7].appl  acceleration  ETV
vector 161  scenario.node[7].appl  controllerAcceleration  ETV
vector 157  scenario.node[7].appl  speed  ETV
vector 158  scenario.node[7].appl  posx  ETV
vector 159  scenario.node[7].appl  posy  ETV
vector 35  scenario.node[1].prot  leaderDelay  ETV
vector 33  scenario.node[1].prot  leaderDelayId  ETV
vector 36  scenario.node[1].prot  frontDelay  ETV
vector 34  scenario.node[1].prot  frontDelayId  ETV
vector 57  scenario.node[2].prot  leaderDelay  ETV
vector 55  scenario.node[2].prot  leaderDelayId  ETV
vector 79  scenario.node[3].prot  leaderDelay  ETV
vector 77  scenario.node[3].prot  leaderDelayId  ETV
vector 101  scenario.node[4].prot  leaderDelay  ETV
vector 99  scenario.node[4].prot  leaderDelayId  ETV
vector 123  scenario.node[5].prot  leaderDelay  ETV
vector 121  scenario.node[5].prot  leaderDelayId  ETV
vector 145  scenario.node[6].prot  leaderDelay  ETV
vector 143  scenario.node[6].prot  leaderDelayId  ETV
vector 167  scenario.node[7].prot  leaderDelay  ETV
vector 165  scenario.node[7].prot  leaderDelayId  ETV
vector 168  scenario.node[7].prot  frontDelay  ETV
vector 166  scenario.node[7].prot  frontDelayId  ETV
vector 58  scenario.node[2].prot  frontDelay  ETV
vector 56  scenario.node[2].prot  frontDelayId  ETV
vector 124  scenario.node[5].prot  frontDelay  ETV
vector 122  scenario.node[5].prot  frontDelayId  ETV
vector 80  scenario.node[3].prot  frontDelay  ETV
vector 78  scenario.node[3].prot  frontDelayId  ETV
vector 146  scenario.node[6].prot  frontDelay  ETV
vector 144  scenario.node[6].prot  frontDelayId  ETV
vector 102  scenario.node[4].prot  frontDelay  ETV
vector 100  scenario.node[4].prot  frontDelayId  ETV
vector 8  scenario.node[0].prot  nodeId  ETV
vector 9  scenario.node[0].prot  busyTime  ETV
vector 10  scenario.node[0].prot  collisions  ETV
vector 30  scenario.node[1].prot  nodeId  ETV
vector 31  scenario.node[1].prot  busyTime  ETV
vector 32  scenario.node[1].prot  collisions  ETV
vector 52  scenario.node[2].prot  nodeId  ETV
vector 53  scenario.node[2].prot  busyTime  ETV
vector 54  scenario.node[2].prot  collisions  ETV
vector 74  scenario.node[3].prot  nodeId  ETV
vector 75  scenario.node[3].prot  busyTime  ETV
vector 76  scenario.node[3].prot  collisions  ETV
vector 96  scenario.node[4].prot  nodeId  ETV
vector 97  scenario.node[4].prot  busyTime  ETV
vector 98  scenario.node[4].prot  collisions  ETV
vector 118  scenario.node[5].prot  nodeId  ETV
vector 119  scenario.node[5].prot  busyTime  ETV
vector 120  scenario.node[5].prot  collisions  ETV
vector 140  scenario.node[6].prot  nodeId  ETV
vector 141  scenario.node[6].prot  busyTime  ETV
vector 142  scenario.node[6].prot  collisions  ETV
vector 162  scenario.node[7].prot  nodeId  ETV
vector 163  scenario.node[7].prot  busyTime  ETV
vector 164  scenario.node[7].prot  collisions  ETV
7	11271 12641 232 299170 1.11 54.71 537 -1.5 1.5 -15.764786263907 901.18517232693
6	23912 16932 232 299170 1.11 54.71 537 -1.472274679513 1.4513434167588 -10.98835323538 612.31616612349
5	40844 10989 232 299170 1.11 54.71 537 36.55 36.55 19627.35 717379.6425
4	51833 16286 232 299170 1.11 54.71 537 181.51262245165 930.50481119639 299237.8458475 191820566.93668
3	68119 16293 232 299170 1.11 54.71 537 12.599076992993 15.853603639796 7503.4339863243 105245.57803123
1	84412 8841 232 299170 1.11 54.71 537 0 0 0 0
0	93253 9378 232 299170 1.11 54.71 537 -1 -1 -537 537
2	102631 8841 232 299170 1.11 54.71 537 0 0 0 0
10	111472 768 5056 295082 2 54 53 0 0 0 0
9	112240 1396 5056 295082 2 54 53 0.02275868769 0.026262637196 1.387757214352 0.03634913245637
8	113636 715 5056 295082 2 54 53 0 0 0 0
51	114351 17734 234 299172 1.11 54.71 537 -5.0231112800593 1.5549673395114 12.980872132733 453.90447210675
50	132085 17777 234 299172 1.11 54.71 537 -2.8383972181382 1.365993790553 12.675834878621 307.1589217479
49	149862 11526 234 299172 1.11 54.71 537 36.55 36.55 19627.35 717379.6425
48	161388 16839 234 299172 1.11 54.71 537 141.29040107727 895.41156190575 270656.93972527 162304487.5208
47	178227 16843 234 299172 1.11 54.71 537 10.750144430545 15.143370663347 7555.5406953656 107038.97611347
45	195070 17726 234 299172 1.11 54.71 537 -0.35722949642143 1.2147313606149 109.87789716448 99.774757478005
44	212796 16827 234 299172 1.11 54.71 537 16.111106872559 27.111560197253 13473.935496634 342605.07043035
46	229623 9378 234 299172 1.11 54.71 537 2 2 1074 2148
58	239001 21526 1040 298871 1.299190683342 54.699193845467 535 0.099987119223 0.100012877046 53.5000029063 5.3500005841903
57	260527 21531 842 298667 1.269558878337 54.669561606299 535 0.099987207226 0.100012798211 53.500002472132 5.3500004973507
56	282058 14639 1040 298871 1.299190683342 54.699193845467 535 2 2 1070 2140
55	296697 14639 842 298667 1.269558878337 54.669561606299 535 2 2 1070 2140
54	311336 768 5058 295084 2 54 53 0 0 0 0
53	312104 1449 5058 295084 2 54 53 0.022758823682 0.026262639411 1.38775733583 0.036349137884387
52	313553 768 5058 295084 2 54 53 2 2 106 212
73	314321 17641 235 299173 1.11 54.71 537 -5.4162603311002 1.7412007562299 19.504260939984 515.54826410659
72	331962 17671 235 299173 1.11 54.71 537 -3.0599922203372 1.4901313583374 12.754407085914 330.80196277468
71	349633 11526 235 299173 1.11 54.71 537 36.55 36.55 19627.35 717379.6425
70	361159 16831 235 299173 1.11 54.71 537 121.17929420471 864.3162312084 255393.27026985 146697801.2402
69	377990 16843 235 299173 1.11 54.71 537 10.494930154741 15.138496757517 7445.6968671431 104165.15368801
67	394833 17714 235 299173 1.11 54.71 537 -0.06923671147767 0.89941747785876 109.71706987363 58.466846253786
66	412547 16830 235 299173 1.11 54.71 537 16.111106872559 27.095233219236 13113.472578859 326221.42145068
68	429377 9378 235 299173 1.11 54.71 537 3 3 1611 4833
80	438755 21539 1180 299000 1.300212018762 54.700215363782 535 0.099987043424 0.100012952484 53.500003089198 5.3500006207745
79	460294 21530 848 298673 1.26955894542 54.669561710021 535 0.099987207414 0.100012798297 53.500002508771 5.3500005046785
78	481824 14642 1180 299000 1.300212018762 54.700215363782 535 3 3 1605 4815
77	496466 14631 848 298673 1.26955894542 54.669561710021 535 3 3 1605 4815
76	511097 768 5059 295085 2 54 53 0 0 0 0
75	511865 1451 5059 295085 2 54 53 0.022757756456 0.02626263654 1.38775623212 0.0363490873925
74	513316 768 5059 295085 2 54 53 3 3 159 477
95	514084 17600 236 299174 1.11 54.71 537 -5.810166661088 1.7231232031655 21.683191109956 519.29307254932
94	531684 17652 236 299174 1.11 54.71 537 -3.2834878312668 1.4663642672531 12.705952776064 330.74630640614
93	549336 11526 236 299174 1.11 54.71 537 36.55 36.55 19627.35 717379.6425
92	560862 16825 236 299174 1.11 54.71 537 101.06817970276 833.26539876734 240455.25274476 132174081.75577
91	577687 16845 236 299174 1.11 54.71 537 10.242680873058 15.125206907488 7336.295503335 101328.30915559
89	594532 17610 236 299174 1.11 54.71 537 0 0.66696705498873 109.27381973724 44.128101181006
88	612142 16837 236 299174 1.11 54.71 537 16.111114501953 27.050566644055 12787.829497807 311360.8613632
90	628979 9378 236 299174 1.11 54.71 537 4 4 2148 8592
102	638357 22066 1312 299132 1.306030354182 54.706085881078 535 0.099896548758 0.100091586974 53.499990271077 5.3499990858986
101	660423 22057 854 298679 1.269559012504 54.669561813593 535 0.09998720764 0.100012798381 53.500002545259 5.3500005119761
100	682480 15171 1312 299132 1.306030354182 54.706085881078 535 4 4 2140 8560
99	697651 14646 854 298679 1.269559012504 54.669561813593 535 4 4 2140 8560
98	712297 768 5060 295086 2 54 53 0 0 0 0
97	713065 1452 5060 295086 2 54 53 0.022758689229 0.026262634892 1.387757128579 0.03634912794253
96	714517 768 5060 295086 2 54 53 4 4 212 848
117	715285 18144 237 299175 1.11 54.71 537 -6.2050624538093 1.5684915876782 6.7318991795523 505.31696312114
116	733429 18154 237 299175 1.11 54.71 537 -3.5072915137768 1.4046827652351 12.362029211071 332.31999242709
115	751583 12063 237 299175 1.11 54.71 537 36.55 36.55 19627.35 717379.6425
114	763646 17369 237 299175 1.11 54.71 537 80.957069015503 802.30015594612 225811.74865378 118690538.19214
113	781015 17378 237 299175 1.11 54.71 537 9.9910453072241 15.099614203367 7227.7470583283 98540.062568058
111	798393 18117 237 299175 1.11 54.71 537 0 0.53493098988532 108.42138547899 35.92001873045
110	816510 17380 237 299175 1.11 54.71 537 16.111110687256 26.964730967145 12493.333122079 297855.20561018
112	833890 9915 237 299175 1.11 54.71 537 5 5 2685 13425
124	843805 22051 1112 298931 1.299590884594 54.69959415605 535 0.099987275486 0.100012744478 53.500003015633 5.3500006060462
123	865856 22048 860 298685 1.269559079587 54.669561916878 535 0.099987207796 0.100012798463 53.500002581461 5.3500005192165
122	887904 15167 1112 298931 1.299590884594 54.69959415605 535 5 5 2675 13375
121	903071 15151 860 298685 1.269559079587 54.669561916878 535 5 5 2675 13375
120	918222 821 5061 295087 2 54 53 0 0 0 0
119	919043 1502 5061 295087 2 54 53 0.022757622002 0.026262633955 1.387756025355 0.036349077476455
118	920545 821 5061 295087 2 54 53 5 5 265 1325
139	921366 18076 238 299176 1.11 54.71 537 -6.5979876984207 1.6039507097033 25.655250063107 537.59540859493
138	939442 18151 238 299176 1.11 54.71 537 -3.7289063800429 1.3614804529769 12.239951157845 337.22913903592
137	957593 12063 238 299176 1.11 54.71 537 36.55 36.55 19627.35 717379.6425
136	969656 17372 238 299176 1.11 54.71 537 60.845958328247 771.46050012565 211436.26491022 106206183.74635
135	987028 17384 238 299176 1.11 54.71 537 9.7445275124921 15.061714616913 7120.4474566616 95802.086559637
133	1004412 18051 238 299176 1.11 54.71 537 0 0.46147170474865 107.17598137458 30.485207544949
132	1022463 17387 238 299176 1.11 54.71 537 16.111110687256 26.838897828736 12225.337751534 285522.94289087
134	1039850 9915 238 299176 1.11 54.71 537 6 6 3222 19332
146	1049765 22072 1249 299069 1.305617220014 54.705607673511 535 0.099987282501 0.100000593709 53.499990197677 5.3499980422923
145	1071837 22070 866 298691 1.269559146671 54.669562019741 535 0.09998720789 0.100012798544 53.50000261724 5.3500005263723
144	1093907 15180 1249 299069 1.305617220014 54.705607673511 535 6 6 3210 19260
143	1109087 15179 866 298691 1.269559146671 54.669562019741 535 6 6 3210 19260
142	1124266 821 5062 295088 2 54 53 0 0 0 0
141	1125087 1503 5062 295088 2 54 53 0.022758554775 0.026262633186 1.387756922579 0.036349118066393
140	1126590 821 5062 295088 2 54 53 6 6 318 1908
161	1127411 18117 239 299177 1.11 54.71 537 -6.9928345262855 1.4648648721005 2.0922111441155 529.25019687087
160	1145528 18150 239 299177 1.11 54.71 537 -3.951610934455 1.3153299505259 11.598350466962 342.51101146771
159	1163678 12063 239 299177 1.11 54.71 537 36.55 36.55 19627.35 717379.6425
158	1175741 17377 239 299177 1.11 54.71 537 40.734846687317 740.77161095523 197300.86512175 94679883.613981
157	1193118 17378 239 299177 1.11 54.71 537 9.4981997915243 15.01501611039 7014.6558249235 93114.598430592
155	1210496 18022 239 299177 1.11 54.71 537 0 0.39772354495365 105.66923222653 26.687237691392
154	1228518 17384 239 299177 1.11 54.71 537 16.11111164093 26.687955200293 11985.283955834 274422.95256816
156	1245902 9915 239 299177 1.11 54.71 537 7 7 3759 26313
168	1255817 22089 980 298799 1.292108347923 54.692098326826 535 0.099987294821 0.100000593318 53.499989723076 5.3499979473713
167	1277906 22071 872 298697 1.269559213755 54.669562122101 535 0.09998720796 0.100012798626 53.500002652517 5.3500005334277
166	1299977 15170 980 298799 1.292108347923 54.692098326826 535 7 7 3745 26215
165	1315147 15172 872 298697 1.269559213755 54.669562122101 535 7 7 3745 26215
164	1330319 821 5063 295089 2 54 53 0 0 0 0
163	1331140 1503 5063 295089 2 54 53 0.022758487549 0.026262632444 1.387756820327 0.036349113167596
162	1332643 821 5063 295089 2 54 53 7 7 371 2597
22	1333464 16866 233 299178 1.11 54.71 538 0 27.156677028959 10812.012759772 251438.00727282
23	1350330 17499 233 299178 1.11 54.71 538 -2.544515617761 2.6247564054828 -164.30725302139 877.48308425214
24	1367829 9396 233 299178 1.11 54.71 538 1 1 538 538
25	1377225 16863 233 299178 1.11 54.71 538 11.264132526122 15.423691040958 7680.6895278165 110304.36554391
26	1394088 16868 233 299178 1.11 54.71 538 161.40150794983 926.52314439895 287207.59845324 179895993.92708
27	1410956 11548 233 299178 1.11 54.71 538 36.55 36.55 19663.9 718715.545
28	1422504 17860 233 299178 1.11 54.71 538 -2.5423778989929 1.7170972565674 12.645020109808 471.6150439369
29	1440364 17851 233 299178 1.11 54.71 538 -4.5299780875605 2.0026008419395 14.903850386122 699.71243459743
30	1458215 768 5057 295083 2 54 53 1 1 53 53
31	1458983 1450 5057 295083 2 54 53 0.022758756416 0.026262635616 1.387757232056 0.036349132905898
32	1460433 768 5057 295083 2 54 53 0 0 0 0
33	1461201 14641 836 298661 1.269558811253 54.669561502522 535 1 1 535 535
34	1475842 14641 836 298661 1.269558811253 54.669561502522 535 1 1 535 535
35	1490483 21534 836 298661 1.269558811253 54.669561502522 535 0.099987207082 0.100012797987 53.500002435439 5.3500004900121
36	1512017 21534 836 298661 1.269558811253 54.669561502522 535 0.099987207082 0.100012797987 53.500002435439 5.3500004900121
