version 2
run SinusoidalJammingDetail-466-20170801-17:45:48-51287
attr CACCSpacing 5
attr attackAcc -30
attr attackPos 7
attr attackSpeed 150
attr attackStart 31.5
attr attacker 1
attr beaconInterval 0.1
attr configname SinusoidalJammingDetail
attr controller 1
attr datetime 20170801-17:45:48
attr experiment SinusoidalJammingDetail
attr fakeAcc "(1 == 4)"
attr fakePos "(1 == 2)"
attr fakeSpeed "(1 == 3)"
attr inifile omnetpp_466.ini
attr iterationvars "$leaderSpeed=120, $controller=1, $CACCSpacing=5, $sController=\"CACC\", $attacker=1, $attackStart=31.5, $attackSpeed=150, $attackPos=7, $attackAcc=-30, $0=5, $1=0, $nCars=8, $platoonSize=8, $nLanes=1, $beaconInterval=0.1, $priority=2, $packetSize=200, $ploegH=0.5, $leaderHeadway=1.2, $fakeSpeed=(1 == 3), $fakeAcc=(1 == 4), $fakePos=(1 == 2)"
attr iterationvarsf leaderSpeed=120,controller=1,CACCSpacing=5,sController=CACC,attacker=1,attackStart=31.5,attackSpeed=150,attackPos=7,attackAcc=-30,5,0,nCars=8,platoonSize=8,nLanes=1,beaconInterval=0.1,priority=2,packetSize=200,ploegH=0.5,leaderHeadway=1.2,fakeSpeed=(1_==_3),fakeAcc=(1_==_4),fakePos=(1_==_2)-
attr leaderHeadway 1.2
attr leaderSpeed 120
attr measurement "$leaderSpeed=120, $controller=1, $CACCSpacing=5, $sController=\"CACC\", $attacker=1, $attackStart=31.5, $attackSpeed=150, $attackPos=7, $attackAcc=-30, $0=5, $1=0, $nCars=8, $platoonSize=8, $nLanes=1, $beaconInterval=0.1, $priority=2, $packetSize=200, $ploegH=0.5, $leaderHeadway=1.2, $fakeSpeed=(1 == 3), $fakeAcc=(1 == 4), $fakePos=(1 == 2)"
attr nCars 8
attr nLanes 1
attr network scenario
attr packetSize 200
attr platoonSize 8
attr ploegH 0.5
attr priority 2
attr processid 51287
attr repetition 1
attr replication #1
attr resultdir results
attr runnumber 466
attr sController "\"CACC\""
attr seedset 1
param **.coreDebug false
param **.debug false
param **.headway 0.1s
param **.numberOfCars 8
param **.numberOfCarsPerPlatoon 8
param **.numberOfLanes 1
param **.numericController 1
param **.traffic.nCars 8
param **.traffic.nLanes 1
param **.traffic.platoonInsertDistance 5m
param **.traffic.platoonInsertHeadway 0s
param **.traffic.platoonInsertSpeed 120kmph
param **.traffic.platoonInsertTime "1 s"
param **.traffic.platoonLeaderHeadway 1.2s
param **.traffic.platoonSize 8
param **.traffic.platooningVType "\"vtypeauto\""
param **.traffic_type "\"PlatoonsTrafficManager\""
param *.**.nic.mac1609_4.bitrate 6Mbps
param *.**.nic.mac1609_4.txPower 100mW
param *.**.nic.mac1609_4.useServiceChannel false
param *.**.nic.phy80211p.analogueModels "xmldoc(\"config.xml\")"
param *.**.nic.phy80211p.decider "xmldoc(\"config.xml\")"
param *.**.nic.phy80211p.maxTXPower 100mW
param *.**.nic.phy80211p.sensitivity -94dBm
param *.**.nic.phy80211p.thermalNoise -95dBm
param *.**.nic.phy80211p.usePropagationDelay true
param *.**.nic.phy80211p.useThermalNoise true
param *.annotations.draw false
param *.connectionManager.alpha 2.0
param *.connectionManager.carrierFrequency "5.890e9 Hz"
param *.connectionManager.pMax 100mW
param *.connectionManager.sat -94dBm
param *.connectionManager.sendDirect true
param *.manager.autoShutdown true
param *.manager.commandLine "\"sumo --remote-port $port --seed $seed --configuration-file $configFile\""
param *.manager.configFile "\"./sumocfg/freeway.sumo.cfg\""
param *.manager.host "\"localhost\""
param *.manager.margin 25
param *.manager.moduleDisplayString "\"\""
param *.manager.moduleName "\"node\""
param *.manager.moduleType "\"Car\""
param *.manager.updateInterval 0.01s
param *.node[*].appl.attackStart 31.5s
param *.node[*].appl.attackerType 1
param *.node[*].appl.simulationDuration "60 s"
param *.node[*].appl_type "\"SimplePlatooningApp\""
param *.node[*].helper.nCars 8
param *.node[*].helper.nLanes 1
param *.node[*].helper.platoonSize 8
param *.node[*].helper_type "\"PositionHelper\""
param *.node[*].mobility.x 0
param *.node[*].mobility.y 0
param *.node[*].mobility.z 1.895
param *.node[*].prot.attackStart 31.5s
param *.node[*].prot.attackerType 1
param *.node[*].prot.attackingNode 3
param *.node[*].prot.beaconingInterval 0.1s
param *.node[*].prot.fakeAcc "(1 == 4)"
param *.node[*].prot.fakePos "(1 == 2)"
param *.node[*].prot.fakeSpeed "(1 == 3)"
param *.node[*].prot.maliciousAcc "-30 mpss"
param *.node[*].prot.maliciousSpeed 150kmph
param *.node[*].prot.packetSize 200
param *.node[*].prot.priority 2
param *.node[*].prot.shiftX "7 m"
param *.node[*].prot.useControllerAcceleration true
param *.node[*].protocol_type "\"SimplePlatooningBeaconing\""
param *.node[*].scenario.accHeadway 0.1s
param *.node[*].scenario.caccC1 0.5
param *.node[*].scenario.caccOmegaN "0.2 Hz"
param *.node[*].scenario.caccSpacing 5m
param *.node[*].scenario.caccXi 1
param *.node[*].scenario.controller "\"CACC\""
param *.node[*].scenario.engineTau "0.5 s"
param *.node[*].scenario.leaderHeadway 1.2s
param *.node[*].scenario.leaderOscillationFrequency "0.2 Hz"
param *.node[*].scenario.leaderSpeed 120kmph
param *.node[*].scenario.oscillationAmplitude "10 kmph"
param *.node[*].scenario.ploegH 0.5s
param *.node[*].scenario.ploegKd 0.7
param *.node[*].scenario.ploegKp 0.2
param *.node[*].scenario.startOscillating "5 s"
param *.node[*].scenario.useRealisticEngine false
param *.node[*].scenario_type "\"SinusoidalScenario\""
param *.node[*].unicast.packetLossRate 0
param *.obstacles.debug false
param *.playgroundSizeX 65000m
param *.playgroundSizeY 25000m
param *.playgroundSizeZ 50m
param *.world.use2D false
param *.world.useTorus false

vector 0  scenario.node[0].appl  distance  ETV
vector 1  scenario.node[0].appl  relativeSpeed  ETV
vector 2  scenario.node[0].appl  nodeId  ETV
vector 6  scenario.node[0].appl  acceleration  ETV
vector 7  scenario.node[0].appl  controllerAcceleration  ETV
vector 3  scenario.node[0].appl  speed  ETV
vector 4  scenario.node[0].appl  posx  ETV
vector 5  scenario.node[0].appl  posy  ETV
vector 22  scenario.node[1].appl  distance  ETV
vector 23  scenario.node[1].appl  relativeSpeed  ETV
vector 24  scenario.node[1].appl  nodeId  ETV
vector 28  scenario.node[1].appl  acceleration  ETV
vector 29  scenario.node[1].appl  controllerAcceleration  ETV
vector 25  scenario.node[1].appl  speed  ETV
vector 26  scenario.node[1].appl  posx  ETV
vector 27  scenario.node[1].appl  posy  ETV
vector 44  scenario.node[2].appl  distance  ETV
vector 45  scenario.node[2].appl  relativeSpeed  ETV
vector 46  scenario.node[2].appl  nodeId  ETV
vector 50  scenario.node[2].appl  acceleration  ETV
vector 51  scenario.node[2].appl  controllerAcceleration  ETV
vector 47  scenario.node[2].appl  speed  ETV
vector 48  scenario.node[2].appl  posx  ETV
vector 49  scenario.node[2].appl  posy  ETV
vector 66  scenario.node[3].appl  distance  ETV
vector 67  scenario.node[3].appl  relativeSpeed  ETV
vector 68  scenario.node[3].appl  nodeId  ETV
vector 72  scenario.node[3].appl  acceleration  ETV
vector 73  scenario.node[3].appl  controllerAcceleration  ETV
vector 69  scenario.node[3].appl  speed  ETV
vector 70  scenario.node[3].appl  posx  ETV
vector 71  scenario.node[3].appl  posy  ETV
vector 88  scenario.node[4].appl  distance  ETV
vector 89  scenario.node[4].appl  relativeSpeed  ETV
vector 90  scenario.node[4].appl  nodeId  ETV
vector 94  scenario.node[4].appl  acceleration  ETV
vector 95  scenario.node[4].appl  controllerAcceleration  ETV
vector 91  scenario.node[4].appl  speed  ETV
vector 92  scenario.node[4].appl  posx  ETV
vector 93  scenario.node[4].appl  posy  ETV
vector 110  scenario.node[5].appl  distance  ETV
vector 111  scenario.node[5].appl  relativeSpeed  ETV
vector 112  scenario.node[5].appl  nodeId  ETV
vector 116  scenario.node[5].appl  acceleration  ETV
vector 117  scenario.node[5].appl  controllerAcceleration  ETV
vector 113  scenario.node[5].appl  speed  ETV
vector 114  scenario.node[5].appl  posx  ETV
vector 115  scenario.node[5].appl  posy  ETV
vector 132  scenario.node[6].appl  distance  ETV
vector 133  scenario.node[6].appl  relativeSpeed  ETV
vector 134  scenario.node[6].appl  nodeId  ETV
vector 138  scenario.node[6].appl  acceleration  ETV
vector 139  scenario.node[6].appl  controllerAcceleration  ETV
vector 135  scenario.node[6].appl  speed  ETV
vector 136  scenario.node[6].appl  posx  ETV
vector 137  scenario.node[6].appl  posy  ETV
vector 154  scenario.node[7].appl  distance  ETV
vector 155  scenario.node[7].appl  relativeSpeed  ETV
vector 156  scenario.node[7].appl  nodeId  ETV
vector 160  scenario.node[7].appl  acceleration  ETV
vector 161  scenario.node[7].appl  controllerAcceleration  ETV
vector 157  scenario.node[7].appl  speed  ETV
vector 158  scenario.node[7].appl  posx  ETV
vector 159  scenario.node[7].appl  posy  ETV
vector 58  scenario.node[2].prot  frontDelay  ETV
vector 56  scenario.node[2].prot  frontDelayId  ETV
vector 102  scenario.node[4].prot  frontDelay  ETV
vector 100  scenario.node[4].prot  frontDelayId  ETV
vector 146  scenario.node[6].prot  frontDelay  ETV
vector 144  scenario.node[6].prot  frontDelayId  ETV
vector 168  scenario.node[7].prot  frontDelay  ETV
vector 166  scenario.node[7].prot  frontDelayId  ETV
vector 124  scenario.node[5].prot  frontDelay  ETV
vector 122  scenario.node[5].prot  frontDelayId  ETV
vector 35  scenario.node[1].prot  leaderDelay  ETV
vector 33  scenario.node[1].prot  leaderDelayId  ETV
vector 36  scenario.node[1].prot  frontDelay  ETV
vector 34  scenario.node[1].prot  frontDelayId  ETV
vector 57  scenario.node[2].prot  leaderDelay  ETV
vector 55  scenario.node[2].prot  leaderDelayId  ETV
vector 79  scenario.node[3].prot  leaderDelay  ETV
vector 77  scenario.node[3].prot  leaderDelayId  ETV
vector 101  scenario.node[4].prot  leaderDelay  ETV
vector 99  scenario.node[4].prot  leaderDelayId  ETV
vector 123  scenario.node[5].prot  leaderDelay  ETV
vector 121  scenario.node[5].prot  leaderDelayId  ETV
vector 145  scenario.node[6].prot  leaderDelay  ETV
vector 143  scenario.node[6].prot  leaderDelayId  ETV
vector 167  scenario.node[7].prot  leaderDelay  ETV
vector 165  scenario.node[7].prot  leaderDelayId  ETV
vector 80  scenario.node[3].prot  frontDelay  ETV
vector 78  scenario.node[3].prot  frontDelayId  ETV
vector 8  scenario.node[0].prot  nodeId  ETV
vector 9  scenario.node[0].prot  busyTime  ETV
vector 10  scenario.node[0].prot  collisions  ETV
vector 30  scenario.node[1].prot  nodeId  ETV
vector 31  scenario.node[1].prot  busyTime  ETV
vector 32  scenario.node[1].prot  collisions  ETV
vector 52  scenario.node[2].prot  nodeId  ETV
vector 53  scenario.node[2].prot  busyTime  ETV
vector 54  scenario.node[2].prot  collisions  ETV
vector 74  scenario.node[3].prot  nodeId  ETV
vector 75  scenario.node[3].prot  busyTime  ETV
vector 76  scenario.node[3].prot  collisions  ETV
vector 96  scenario.node[4].prot  nodeId  ETV
vector 97  scenario.node[4].prot  busyTime  ETV
vector 98  scenario.node[4].prot  collisions  ETV
vector 118  scenario.node[5].prot  nodeId  ETV
vector 119  scenario.node[5].prot  busyTime  ETV
vector 120  scenario.node[5].prot  collisions  ETV
vector 140  scenario.node[6].prot  nodeId  ETV
vector 141  scenario.node[6].prot  busyTime  ETV
vector 142  scenario.node[6].prot  collisions  ETV
vector 162  scenario.node[7].prot  nodeId  ETV
vector 163  scenario.node[7].prot  busyTime  ETV
vector 164  scenario.node[7].prot  collisions  ETV
7	232	1.11	1.264609664986e-06
7	788	1.21	1.2370558053476e-06
7	1344	1.31	1.1922643139428e-06
7	1900	1.41	1.1341353030048e-06
7	2456	1.51	1.0661075364737e-06
7	3012	1.61	9.9117950469463e-07
7	3568	1.71	9.1193474816009e-07
7	4124	1.81	8.3057002342457e-07
7	4680	1.91	7.4892560064654e-07
7	5244	2.01	6.6851609403784e-07
7	5800	2.11	5.9056183232542e-07
7	6356	2.21	5.1602003736662e-07
7	6912	2.31	4.4561458878434e-07
7	7468	2.41	3.7986517753552e-07
7	8024	2.51	3.1911461206846e-07
7	8580	2.61	2.6355444049386e-07
7	9136	2.71	2.1324864718508e-07
7	9692	2.81	1.6815555881067e-07
7	10248	2.91	1.2814749794643e-07
7	10812	3.01	9.3028553749264e-08
7	11368	3.11	6.255026363533e-08
7	11924	3.21	3.6425589655664e-08
7	12480	3.31	1.4340962195547e-08
7	13036	3.41	-4.0332679418498e-09
7	13592	3.51	-1.9034231968362e-08
7	14148	3.61	-3.0998883460143e-08
7	14704	3.71	-4.0258086642098e-08
7	15260	3.81	-4.7131671010447e-08
7	15816	3.91	-5.1925063360159e-08
7	16380	4.01	-5.4926061920924e-08
7	16936	4.11	-5.6402775783226e-08
7	17492	4.21	-5.6602530662531e-08
7	18048	4.31	-5.5751151251116e-08
7	18604	4.41	-5.4052726738973e-08
7	19160	4.51	-5.1689909241759e-08
7	19716	4.61	-4.8824482234977e-08
7	20272	4.71	-4.5598198994412e-08
7	20828	4.81	-4.2133798672239e-08
7	21384	4.91	-3.8536192903393e-08
7	21949	5.01	-3.4893794520485e-08
7	22506	5.11	0.34814783973202
7	23063	5.21	0.68726932535991
7	23620	5.31	1.0064705905053
7	24177	5.41	1.2963311346507
7	24734	5.51	1.5
7	25291	5.61	1.5
7	25848	5.71	1.5
7	26405	5.81	1.5
7	26962	5.91	1.5
7	27527	6.01	1.5
7	28084	6.11	1.5
7	28641	6.21	1.5
7	29198	6.31	1.5
7	29755	6.41	1.5
7	30312	6.51	1.4919234058593
7	30869	6.61	1.2264993209595
7	31426	6.71	0.92305383326438
7	31983	6.81	0.5890810138258
7	32540	6.91	0.23235621116515
7	33105	7.01	-0.13919560237429
7	33662	7.11	-0.51762846938546
7	34219	7.21	-0.89509994250727
7	34776	7.31	-1.2639902910536
7	35333	7.41	-1.5
7	35890	7.51	-1.5
7	36447	7.61	-1.5
7	37004	7.71	-1.5
7	37561	7.81	-1.5
7	38118	7.91	-1.5
7	38683	8.01	-1.5
7	39240	8.11	-1.5
7	39797	8.21	-1.5
7	40354	8.31	-1.5
7	40911	8.41	-1.5
7	41468	8.51	-1.5
7	42025	8.61	-1.5
7	42582	8.71	-1.5
7	43139	8.81	-1.5
7	43696	8.91	-1.5
7	44261	9.01	-1.5
7	44818	9.11	-1.5
7	45375	9.21	-1.5
7	45932	9.31	-1.5
7	46489	9.41	-1.5
7	47046	9.51	-1.178453590773
7	47603	9.61	-0.73985166452546
7	48160	9.71	-0.29046662090423
7	48717	9.81	0.15868205640434
7	49274	9.91	0.59737147663756
7	49839	10.01	1.0162504339375
7	50396	10.11	1.4069035496629
7	50953	10.21	1.5
7	51510	10.31	1.5
7	52067	10.41	1.5
7	52624	10.51	1.5
7	53181	10.61	1.5
7	53738	10.71	1.5
7	54295	10.81	1.5
7	54852	10.91	1.5
7	55417	11.01	1.5
7	55974	11.11	1.5
7	56531	11.21	1.5
7	57088	11.31	1.5
7	57645	11.41	1.5
7	58202	11.51	1.5
7	58759	11.61	1.5
7	59316	11.71	1.5
7	59873	11.81	1.5
7	60430	11.91	1.1420569522446
7	60995	12.01	0.73271074165216
7	61552	12.11	0.30763491694659
7	62109	12.21	-0.12290183408495
7	62666	12.31	-0.5491742287245
7	63223	12.41	-0.96209331723149
7	63780	12.51	-1.3532900275905
7	64337	12.61	-1.5
7	64894	12.71	-1.5
7	65451	12.81	-1.5
7	66008	12.91	-1.5
7	66573	13.01	-1.5
7	67130	13.11	-1.5
7	67687	13.21	-1.5
7	68244	13.31	-1.5
7	68801	13.41	-1.5
7	69358	13.51	-1.5
7	69915	13.61	-1.5
7	70472	13.71	-1.5
7	71029	13.81	-1.5
7	71586	13.91	-1.5
7	72151	14.01	-1.5
7	72708	14.11	-1.5
7	73265	14.21	-1.5
7	73822	14.31	-1.5
7	74379	14.41	-1.300830579343
7	74936	14.51	-0.88835736023715
7	75493	14.61	-0.45792464377335
7	76050	14.71	-0.020297800504288
7	76607	14.81	0.41435934755211
7	77164	14.91	0.83657487482698
7	77729	15.01	1.2376491838765
7	78286	15.11	1.5
7	78843	15.21	1.5
7	79400	15.31	1.5
7	79957	15.41	1.5
7	80514	15.51	1.5
7	81071	15.61	1.5
7	81628	15.71	1.5
7	82185	15.81	1.5
7	82742	15.91	1.5
7	83307	16.01	1.5
7	83864	16.11	1.5
7	84421	16.21	1.5
7	84978	16.31	1.5
7	85535	16.41	1.5
7	86092	16.51	1.5
7	86649	16.61	1.5
7	87206	16.71	1.5
7	87763	16.81	1.5
7	88320	16.91	1.2451238477297
7	88885	17.01	0.83347870134542
7	89442	17.11	0.40470958876118
7	89999	17.21	-0.030598062226161
7	90556	17.31	-0.46243980387321
7	91113	17.41	-0.88148335305221
7	91670	17.51	-1.2791500631775
7	92227	17.61	-1.5
7	92784	17.71	-1.5
7	93341	17.81	-1.5
7	93898	17.91	-1.5
7	94463	18.01	-1.5
7	95020	18.11	-1.5
7	95577	18.21	-1.5
7	96134	18.31	-1.5
7	96691	18.41	-1.5
7	97248	18.51	-1.5
7	97805	18.61	-1.5
7	98362	18.71	-1.5
7	98919	18.81	-1.5
7	99476	18.91	-1.5
7	100041	19.01	-1.5
7	100598	19.11	-1.5
7	101155	19.21	-1.5
7	101712	19.31	-1.5
7	102269	19.41	-1.2657245815155
7	102826	19.51	-0.85377693481785
7	103383	19.61	-0.42439560038367
7	103940	19.71	0.011767371265513
7	104497	19.81	0.44464851836144
7	105054	19.91	0.86486384400278
7	105619	20.01	1.2637899041103
7	106176	20.11	1.5
7	106733	20.21	1.5
7	107290	20.31	1.5
7	107847	20.41	1.5
7	108404	20.51	1.5
7	108961	20.61	1.5
7	109518	20.71	1.5
7	110075	20.81	1.5
7	110632	20.91	1.5
7	111197	21.01	1.5
7	111754	21.11	1.5
7	112311	21.21	1.5
7	112868	21.31	1.5
7	113425	21.41	1.5
7	113982	21.51	1.5
7	114539	21.61	1.5
7	115096	21.71	1.5
7	115653	21.81	1.5
7	116210	21.91	1.2580915517739
7	116775	22.01	0.84625491634584
7	117332	22.11	0.41709956367264
7	117889	22.21	-0.018747163545136
7	118446	22.31	-0.45124369149665
7	119003	22.41	-0.87102520538844
7	119560	22.51	-1.269484879462
7	120117	22.61	-1.5
7	120674	22.71	-1.5
7	121231	22.81	-1.5
7	121788	22.91	-1.5
7	122353	23.01	-1.5
7	122910	23.11	-1.5
7	123467	23.21	-1.5
7	124024	23.31	-1.5
7	124581	23.41	-1.5
7	125138	23.51	-1.5
7	125695	23.61	-1.5
7	126252	23.71	-1.5
7	126809	23.81	-1.5
7	127366	23.91	-1.5
7	127931	24.01	-1.5
7	128488	24.11	-1.5
7	129045	24.21	-1.5
7	129602	24.31	-1.5
7	130159	24.41	-1.260923965114
7	130716	24.51	-0.84904615684758
7	131273	24.61	-0.41980696481334
7	131830	24.71	0.016157099443966
7	132387	24.81	0.44879633965816
7	132944	24.91	0.86873882266688
7	133509	25.01	1.2673715557178
7	134066	25.11	1.5
7	134623	25.21	1.5
7	135180	25.31	1.5
7	135737	25.41	1.5
7	136294	25.51	1.5
7	136851	25.61	1.5
7	137408	25.71	1.5
7	137965	25.81	1.5
7	138522	25.91	1.5
7	139087	26.01	1.5
7	139644	26.11	1.5
7	140201	26.21	1.5
7	140758	26.31	1.5
7	141315	26.41	1.5
7	141872	26.51	1.5
7	142429	26.61	1.5
7	142986	26.71	1.5
7	143543	26.81	1.5
7	144100	26.91	1.2598728518647
7	144665	27.01	0.8480103225158
7	145222	27.11	0.41880224309308
7	145779	27.21	-0.017118277440183
7	146336	27.31	-0.44970455708226
7	146893	27.41	-0.86958730431697
7	147450	27.51	-1.2681558149808
7	148007	27.61	-1.5
7	148564	27.71	-1.5
7	149121	27.81	-1.5
7	149678	27.91	-1.5
7	150243	28.01	-1.5
7	150800	28.11	-1.5
7	151357	28.21	-1.5
7	151914	28.31	-1.5
7	152471	28.41	-1.5
7	153028	28.51	-1.5
7	153585	28.61	-1.5
7	154142	28.71	-1.5
7	154699	28.81	-1.5
7	155256	28.91	-1.5
7	155821	29.01	-1.5
7	156378	29.11	-1.5
7	156935	29.21	-1.5
7	157492	29.31	-1.5
7	158049	29.41	-1.2602629232501
7	158606	29.51	-0.84839472385493
7	159163	29.61	-0.41917509845157
7	159720	29.71	0.016761581288016
7	160277	29.81	0.44936751475895
7	160834	29.91	0.86927243012207
7	161399	30.01	1.2678647739113
7	161956	30.11	1.5
7	162513	30.21	1.5
7	163070	30.31	1.5
7	163627	30.41	1.5
7	164184	30.51	1.5
7	164741	30.61	1.5
7	165298	30.71	1.5
7	165855	30.81	1.5
7	166412	30.91	1.5
7	166977	31.01	1.5
7	167534	31.11	1.5
7	168091	31.21	1.5
7	168648	31.31	1.5
7	169205	31.41	1.5
7	169762	31.51	1.5
7	170319	31.61	1.5
7	170876	31.71	1.5
7	171433	31.81	1.5
7	171990	31.91	1.2601181665228
7	172555	32.01	0.84825207129951
7	173112	32.11	0.41903673064589
7	173669	32.21	-0.016893952361208
7	174226	32.31	-0.44949259223428
7	174783	32.41	-0.8693892809349
7	175340	32.51	-1.2679727801759
7	175897	32.61	-1.5
7	176454	32.71	-1.5
7	177011	32.81	-1.5
7	177568	32.91	-1.5
7	178133	33.01	-1.5
7	178690	33.11	-1.5
7	179247	33.21	-1.5
7	179804	33.31	-1.5
7	180361	33.41	-1.5
7	180918	33.51	-1.5
7	181475	33.61	-1.5
7	182032	33.71	-1.5
7	182589	33.81	-1.5
7	183146	33.91	-1.5
7	183711	34.01	-1.5
7	184268	34.11	-1.5
7	184825	34.21	-1.5
7	185382	34.31	-1.5
7	185939	34.41	-1.2601718862023
7	186496	34.51	-0.84830501011423
7	187053	34.61	-0.4190880793765
7	187610	34.71	0.016844829036998
7	188167	34.81	0.44944617558727
6	232	1.11	1.8587371641843e-07
6	788	1.21	3.7715039979958e-07
6	1344	1.31	5.2730015909219e-07
6	1900	1.41	6.4101826069418e-07
6	2456	1.51	7.2280812446479e-07
6	3012	1.61	7.7694011224594e-07
6	3568	1.71	8.0741315855448e-07
6	4124	1.81	8.1792990158647e-07
6	4680	1.91	8.1188602507609e-07
6	5244	2.01	7.9236670558203e-07
6	5800	2.11	7.6214163868826e-07
6	6356	2.21	7.2367640768789e-07
6	6912	2.31	6.7914172063865e-07
6	7468	2.41	6.3042691067494e-07
6	8024	2.51	5.791562784907e-07
6	8580	2.61	5.2670969807878e-07
6	9136	2.71	4.7423895921384e-07
6	9692	2.81	4.226883731917e-07
6	10248	2.91	3.7281679965417e-07
6	10812	3.01	3.2521825232834e-07
6	11368	3.11	2.8033753096679e-07
6	11924	3.21	2.3849224817241e-07
6	12480	3.31	1.9988561916762e-07
6	13036	3.41	1.6463133079014e-07
6	13592	3.51	1.3275709420668e-07
6	14148	3.61	1.0422880336591e-07
6	14704	3.71	7.8954798254927e-08
6	15260	3.81	5.6805049553077e-08
6	15816	3.91	3.7617553516611e-08
6	16380	4.01	2.1201884692346e-08
6	16936	4.11	7.354117315117e-09
6	17492	4.21	-4.1374903503311e-09
6	18048	4.31	-1.3491074923877e-08
6	18604	4.41	-2.0921930854456e-08
6	19160	4.51	-2.6641799877325e-08
6	19716	4.61	-3.0856028843118e-08
6	20272	4.71	-3.3759306461434e-08
6	20828	4.81	-3.5534952758098e-08
6	21384	4.91	-3.6354919075166e-08
6	21949	5.01	-3.6375524814503e-08
6	22506	5.11	0.0068263931019885
6	23063	5.21	0.074594779098902
6	23620	5.31	0.19005129180201
6	24177	5.41	0.34050267454901
6	24734	5.51	0.51301634170429
6	25291	5.61	0.6902545459468
6	25848	5.71	0.83572669343468
6	26405	5.81	0.95506452230651
6	26962	5.91	1.0529631073332
6	27527	6.01	1.1332740451195
6	28084	6.11	1.1991569863937
6	28641	6.21	1.2532039452594
6	29198	6.31	1.2975412760781
6	29755	6.41	1.3339133300356
6	30312	6.51	1.3635927180715
6	30869	6.61	1.3702053544215
6	31426	6.71	1.3272611853779
6	31983	6.81	1.2373810849141
6	32540	6.91	1.1040433684336
6	33105	7.01	0.93147091325463
6	33662	7.11	0.72451589912248
6	34219	7.21	0.48854317732108
6	34776	7.31	0.22931329054146
6	35333	7.41	-0.044839403605579
6	35890	7.51	-0.30626147870336
6	36447	7.61	-0.52071863355891
6	37004	7.71	-0.69664819594024
6	37561	7.81	-0.84097171333752
6	38118	7.91	-0.95936726546597
6	38683	8.01	-1.0564928553684
6	39240	8.11	-1.1361696679188
6	39797	8.21	-1.2015324056335
6	40354	8.31	-1.2551526163939
6	40911	8.41	-1.2991398651295
6	41468	8.51	-1.3352247298471
6	42025	8.61	-1.3648268872679
6	42582	8.71	-1.3891109667817
6	43139	8.81	-1.4090323701247
6	43696	8.91	-1.4253748594882
6	44261	9.01	-1.4387813928529
6	44818	9.11	-1.4497794197055
6	45375	9.21	-1.4588016323373
6	45932	9.31	-1.4662029891298
6	46489	9.41	-1.4722746795918
6	47046	9.51	-1.4696249147882
6	47603	9.61	-1.3967850640618
6	48160	9.71	-1.2587757643061
6	48717	9.81	-1.066095221988
6	49274	9.91	-0.82923335039382
6	49839	10.01	-0.55852907855325
6	50396	10.11	-0.26404116091285
6	50953	10.21	0.03943269852158
6	51510	10.31	0.30182609737963
6	52067	10.41	0.5170800760304
6	52624	10.51	0.69366331145844
6	53181	10.61	0.83852306842829
6	53738	10.71	0.95735852377814
6	54295	10.81	1.0548449875394
6	54852	10.91	1.1348178423468
6	55417	11.01	1.2004234378246
6	55974	11.11	1.2542428765379
6	56531	11.21	1.2983935615857
6	57088	11.31	1.3346125010031
6	57645	11.41	1.3643246463779
6	58202	11.51	1.3886989543209
6	58759	11.61	1.4086943764035
6	59316	11.71	1.4250975869132
6	59873	11.81	1.438553932767
6	60430	11.91	1.4345627372599
6	60995	12.01	1.3623449188415
6	61552	12.11	1.2299875654037
6	62109	12.21	1.0461448397272
6	62666	12.31	0.81967864243424
6	63223	12.41	0.55952045898948
6	63780	12.51	0.27454262943465
6	64337	12.61	-0.022341644934443
6	64894	12.71	-0.28780548062457
6	65451	12.81	-0.50557828691211
6	66008	12.91	-0.68422783830826
6	66573	13.01	-0.83078269407011
6	67130	13.11	-0.95100872083407
6	67687	13.21	-1.0496359374898
6	68244	13.31	-1.1305446069947
6	68801	13.41	-1.1969178964684
6	69358	13.51	-1.2513671116459
6	69915	13.61	-1.2960344327446
6	70472	13.71	-1.332677193669
6	71029	13.81	-1.3627370202968
6	71586	13.91	-1.3873965479647
6	72151	14.01	-1.4076259495631
6	72708	14.11	-1.4242211047723
6	73265	14.21	-1.4378349121337
6	73822	14.31	-1.4490029758569
6	74379	14.41	-1.4542593951873
6	74936	14.51	-1.4067454390094
6	75493	14.61	-1.2938574955413
6	76050	14.71	-1.1248409052385
6	76607	14.81	-0.90912582144114
6	77164	14.91	-0.65618298377643
6	77729	15.01	-0.37539052555147
6	78286	15.11	-0.078063005102535
6	78843	15.21	0.20543869666909
6	79400	15.31	0.438008835728
6	79957	15.41	0.62879735390737
6	80514	15.51	0.78531039043099
6	81071	15.61	0.9137055938524
6	81628	15.71	1.0190343806897
6	82185	15.81	1.1054406719012
6	82742	15.91	1.1763239259942
6	83307	16.01	1.2344728829795
6	83864	16.11	1.2821752809813
6	84421	16.21	1.3213078620829
6	84978	16.31	1.3534102084591
6	85535	16.41	1.3797453137308
6	86092	16.51	1.4013492725667
6	86649	16.61	1.4190720434684
6	87206	16.71	1.4336108884464
6	87763	16.81	1.4455378052055
6	88320	16.91	1.450294906531
6	88885	17.01	1.3935559567486
6	89442	17.11	1.273336870139
6	89999	17.21	1.0986742440473
6	90556	17.31	0.87879676590887
6	91113	17.41	0.62298329275308
6	91670	17.51	0.34043137852748
6	92227	17.61	0.043031849074282
6	92784	17.71	-0.23417644595867
6	93341	17.81	-0.46158379950043
6	93898	17.91	-0.64813703535762
6	94463	18.01	-0.80117566522802
6	95020	18.11	-0.92672064505877
6	95577	18.21	-1.0297112558206
6	96134	18.31	-1.1141994282617
6	96691	18.41	-1.1835091568834
6	97248	18.51	-1.240367274923
6	97805	18.61	-1.2870107353912
6	98362	18.71	-1.3252746188869
6	98919	18.81	-1.3566643306589
6	99476	18.91	-1.3824148273436
6	100041	19.01	-1.4035392035204
6	100598	19.11	-1.420868549603
6	101155	19.21	-1.4350846492
6	101712	19.31	-1.4467468023348
6	102269	19.41	-1.4517201941764
6	102826	19.51	-1.3984004323888
6	103383	19.61	-1.2808993810097
6	103940	19.71	-1.1083308503785
6	104497	19.81	-0.88999806036867
6	105054	19.91	-0.63525086466854
6	105619	20.01	-0.35335363991464
6	106176	20.11	-0.055983891308387
6	106733	20.21	0.22355126013309
6	107290	20.31	0.45286744637281
6	107847	20.41	0.64098658988812
6	108404	20.51	0.79530980944469
6	108961	20.61	0.92190860023891
6	109518	20.71	1.0257637030342
6	110075	20.81	1.1109610600442
6	110632	20.91	1.1808525670212
6	111197	21.01	1.2381879459461
6	111754	21.11	1.2852229265711
6	112311	21.21	1.3238079929607
6	112868	21.31	1.3554611865736
6	113425	21.41	1.3814278301389
6	113982	21.51	1.4027295220423
6	114539	21.61	1.4202043287803
6	115096	21.71	1.4345397567773
6	115653	21.81	1.4462998007623
6	116210	21.91	1.4512038299465
6	116775	22.01	1.3966149622043
6	117332	22.11	1.2781048258539
6	117889	22.21	1.104758616826
6	118446	22.31	0.88585193074024
6	119003	22.41	0.63070830476093
6	119560	22.51	0.34856734380924
6	120117	22.61	0.051185654368879
6	120674	22.71	-0.22748748564823
6	121231	22.81	-0.45609652228151
6	121788	22.91	-0.64363555681979
6	122353	23.01	-0.79748288496191
6	122910	23.11	-0.92369127904561
6	123467	23.21	-1.0272261205614
6	124024	23.31	-1.1121607517779
6	124581	23.41	-1.1818367320963
6	125138	23.51	-1.2389953040923
6	125695	23.61	-1.2858852414531
6	126252	23.71	-1.324351321847
6	126809	23.81	-1.355906905502
6	127366	23.91	-1.3817934749042
6	127931	24.01	-1.403029478103
6	128488	24.11	-1.4204503972238
6	129045	24.21	-1.4347416186069
6	129602	24.31	-1.4464653977718
6	130159	24.41	-1.4513952146871
6	130716	24.51	-1.397277320676
6	131273	24.61	-1.2791416668563
6	131830	24.71	-1.1060840673039
6	132387	24.81	-0.88739036841758
6	132944	24.91	-0.63239387292811
6	133509	25.01	-0.35034337811126
6	134066	25.11	-0.052966136912147
6	134623	25.21	0.22602686982154
6	135180	25.31	0.45489830857193
6	135737	25.41	0.64265260423966
6	136294	25.51	0.7966765214853
6	136851	25.61	0.92302978013734
6	137408	25.71	1.0266834610576
6	137965	25.81	1.1117155819754
6	138522	25.91	1.1814715378058
6	139087	26.01	1.2386957175771
6	139644	26.11	1.2856394761641
6	140201	26.21	1.3241497087101
6	140758	26.31	1.3557415125085
6	141315	26.41	1.3816577950429
6	141872	26.51	1.4029181733591
6	142429	26.61	1.4203590885664
6	142986	26.71	1.4346667137048
6	143543	26.81	1.4464039496623
6	144100	26.91	1.4513241957715
6	144665	27.01	1.3970315218245
6	145222	27.11	1.2787568961947
6	145779	27.21	1.1055921925461
6	146336	27.31	0.8868194531928
6	146893	27.41	0.63176835684402
6	147450	27.51	0.34968428947408
6	148007	27.61	0.052305397196051
6	148564	27.71	-0.22656890652399
6	149121	27.81	-0.45534296745871
6	149678	27.91	-0.64301737940156
6	150243	28.01	-0.79697576417033
6	150800	28.11	-0.92327526336575
6	151357	28.21	-1.0268848428062
6	151914	28.31	-1.1118807851517
6	152471	28.41	-1.1816070619503
6	153028	28.51	-1.2388068945782
6	153585	28.61	-1.2857306800278
6	154142	28.71	-1.3242245276466
6	154699	28.81	-1.3558028900952
6	155256	28.91	-1.3817081460417
6	155821	29.01	-1.4029594787168
6	156378	29.11	-1.4203929733462
6	156935	29.21	-1.4346945110262
6	157492	29.31	-1.446426753148
6	158049	29.41	-1.4513505510308
6	158606	29.51	-1.3971227384744
6	159163	29.61	-1.2788996857282
6	159720	29.71	-1.1057747287524
6	160277	29.81	-0.88703132157306
6	160834	29.91	-0.63200048778285
6	161399	30.01	-0.34992887930017
6	161956	30.11	-0.052550599748002
6	162513	30.21	0.22636775502534
6	163070	30.31	0.45517795316812
6	163627	30.41	0.64288201020943
6	164184	30.51	0.79686471428317
6	164741	30.61	0.92318416377992
6	165298	30.71	1.0268101094155
6	165855	30.81	1.1118194777403
6	166412	30.91	1.181556768519
6	166977	31.01	1.2387656364474
6	167534	31.11	1.2856968339904
6	168091	31.21	1.3241967621056
6	168648	31.31	1.3557801126808
6	169205	31.41	1.3816894606293
6	169762	31.51	1.4029441501705
6	170319	31.61	1.4203803985993
6	170876	31.71	1.434684195354
6	171433	31.81	1.4464182907048
6	171990	31.91	1.4513407705138
6	172555	32.01	1.3970888876891
6	173112	32.11	1.2788466960821
6	173669	32.21	1.1057069889901
6	174226	32.31	0.88695269654835
6	174783	32.41	0.63191434325702
6	175340	32.51	0.3498381112415
6	175897	32.61	0.052459604304289
6	176454	32.71	-0.22644240298533
6	177011	32.81	-0.45523919049515
6	177568	32.91	-0.64293224614715
6	178133	33.01	-0.79690592524955
6	178690	33.11	-0.92321797112547
6	179247	33.21	-1.0268378432137
6	179804	33.31	-1.1118422291148
6	180361	33.41	-1.1815754325717
6	180918	33.51	-1.2387809474724
6	181475	33.61	-1.2857093943644
6	182032	33.71	-1.3242070659885
6	182589	33.81	-1.3557885654535
6	183146	33.91	-1.3816963948479
6	183711	34.01	-1.4029498386442
6	184268	34.11	-1.4203850651299
6	184825	34.21	-1.4346880235344
6	185382	34.31	-1.4464214311445
6	185939	34.41	-1.4513444000933
6	186496	34.51	-1.3971014498217
6	187053	34.61	-1.2788663607076
6	187610	34.71	-1.1057321274301
6	188167	34.81	-0.88698187454312
5	232	1.11	36.55
5	788	1.21	36.55
5	1344	1.31	36.55
5	1900	1.41	36.55
5	2456	1.51	36.55
5	3012	1.61	36.55
5	3568	1.71	36.55
5	4124	1.81	36.55
5	4680	1.91	36.55
5	5244	2.01	36.55
5	5800	2.11	36.55
5	6356	2.21	36.55
5	6912	2.31	36.55
5	7468	2.41	36.55
5	8024	2.51	36.55
5	8580	2.61	36.55
5	9136	2.71	36.55
5	9692	2.81	36.55
5	10248	2.91	36.55
5	10812	3.01	36.55
5	11368	3.11	36.55
5	11924	3.21	36.55
5	12480	3.31	36.55
5	13036	3.41	36.55
5	13592	3.51	36.55
5	14148	3.61	36.55
5	14704	3.71	36.55
5	15260	3.81	36.55
5	15816	3.91	36.55
5	16380	4.01	36.55
5	16936	4.11	36.55
5	17492	4.21	36.55
5	18048	4.31	36.55
5	18604	4.41	36.55
5	19160	4.51	36.55
5	19716	4.61	36.55
5	20272	4.71	36.55
5	20828	4.81	36.55
5	21384	4.91	36.55
5	21949	5.01	36.55
5	22506	5.11	36.55
5	23063	5.21	36.55
5	23620	5.31	36.55
5	24177	5.41	36.55
5	24734	5.51	36.55
5	25291	5.61	36.55
5	25848	5.71	36.55
5	26405	5.81	36.55
5	26962	5.91	36.55
5	27527	6.01	36.55
5	28084	6.11	36.55
5	28641	6.21	36.55
5	29198	6.31	36.55
5	29755	6.41	36.55
5	30312	6.51	36.55
5	30869	6.61	36.55
5	31426	6.71	36.55
5	31983	6.81	36.55
5	32540	6.91	36.55
5	33105	7.01	36.55
5	33662	7.11	36.55
5	34219	7.21	36.55
5	34776	7.31	36.55
5	35333	7.41	36.55
5	35890	7.51	36.55
5	36447	7.61	36.55
5	37004	7.71	36.55
5	37561	7.81	36.55
5	38118	7.91	36.55
5	38683	8.01	36.55
5	39240	8.11	36.55
5	39797	8.21	36.55
5	40354	8.31	36.55
5	40911	8.41	36.55
5	41468	8.51	36.55
5	42025	8.61	36.55
5	42582	8.71	36.55
5	43139	8.81	36.55
5	43696	8.91	36.55
5	44261	9.01	36.55
5	44818	9.11	36.55
5	45375	9.21	36.55
5	45932	9.31	36.55
5	46489	9.41	36.55
5	47046	9.51	36.55
5	47603	9.61	36.55
5	48160	9.71	36.55
5	48717	9.81	36.55
5	49274	9.91	36.55
5	49839	10.01	36.55
5	50396	10.11	36.55
5	50953	10.21	36.55
5	51510	10.31	36.55
5	52067	10.41	36.55
5	52624	10.51	36.55
5	53181	10.61	36.55
5	53738	10.71	36.55
5	54295	10.81	36.55
5	54852	10.91	36.55
5	55417	11.01	36.55
5	55974	11.11	36.55
5	56531	11.21	36.55
5	57088	11.31	36.55
5	57645	11.41	36.55
5	58202	11.51	36.55
5	58759	11.61	36.55
5	59316	11.71	36.55
5	59873	11.81	36.55
5	60430	11.91	36.55
5	60995	12.01	36.55
5	61552	12.11	36.55
5	62109	12.21	36.55
5	62666	12.31	36.55
5	63223	12.41	36.55
5	63780	12.51	36.55
5	64337	12.61	36.55
5	64894	12.71	36.55
5	65451	12.81	36.55
5	66008	12.91	36.55
5	66573	13.01	36.55
5	67130	13.11	36.55
5	67687	13.21	36.55
5	68244	13.31	36.55
5	68801	13.41	36.55
5	69358	13.51	36.55
5	69915	13.61	36.55
5	70472	13.71	36.55
5	71029	13.81	36.55
5	71586	13.91	36.55
5	72151	14.01	36.55
5	72708	14.11	36.55
5	73265	14.21	36.55
5	73822	14.31	36.55
5	74379	14.41	36.55
5	74936	14.51	36.55
5	75493	14.61	36.55
5	76050	14.71	36.55
5	76607	14.81	36.55
5	77164	14.91	36.55
5	77729	15.01	36.55
5	78286	15.11	36.55
5	78843	15.21	36.55
5	79400	15.31	36.55
5	79957	15.41	36.55
5	80514	15.51	36.55
5	81071	15.61	36.55
5	81628	15.71	36.55
5	82185	15.81	36.55
5	82742	15.91	36.55
5	83307	16.01	36.55
5	83864	16.11	36.55
5	84421	16.21	36.55
5	84978	16.31	36.55
5	85535	16.41	36.55
5	86092	16.51	36.55
5	86649	16.61	36.55
5	87206	16.71	36.55
5	87763	16.81	36.55
5	88320	16.91	36.55
5	88885	17.01	36.55
5	89442	17.11	36.55
5	89999	17.21	36.55
5	90556	17.31	36.55
5	91113	17.41	36.55
5	91670	17.51	36.55
5	92227	17.61	36.55
5	92784	17.71	36.55
5	93341	17.81	36.55
5	93898	17.91	36.55
5	94463	18.01	36.55
5	95020	18.11	36.55
5	95577	18.21	36.55
5	96134	18.31	36.55
5	96691	18.41	36.55
5	97248	18.51	36.55
5	97805	18.61	36.55
5	98362	18.71	36.55
5	98919	18.81	36.55
5	99476	18.91	36.55
5	100041	19.01	36.55
5	100598	19.11	36.55
5	101155	19.21	36.55
5	101712	19.31	36.55
5	102269	19.41	36.55
5	102826	19.51	36.55
5	103383	19.61	36.55
5	103940	19.71	36.55
5	104497	19.81	36.55
5	105054	19.91	36.55
5	105619	20.01	36.55
5	106176	20.11	36.55
5	106733	20.21	36.55
5	107290	20.31	36.55
5	107847	20.41	36.55
5	108404	20.51	36.55
5	108961	20.61	36.55
5	109518	20.71	36.55
5	110075	20.81	36.55
5	110632	20.91	36.55
5	111197	21.01	36.55
5	111754	21.11	36.55
5	112311	21.21	36.55
5	112868	21.31	36.55
5	113425	21.41	36.55
5	113982	21.51	36.55
5	114539	21.61	36.55
5	115096	21.71	36.55
5	115653	21.81	36.55
5	116210	21.91	36.55
5	116775	22.01	36.55
5	117332	22.11	36.55
5	117889	22.21	36.55
5	118446	22.31	36.55
5	119003	22.41	36.55
5	119560	22.51	36.55
5	120117	22.61	36.55
5	120674	22.71	36.55
5	121231	22.81	36.55
5	121788	22.91	36.55
5	122353	23.01	36.55
5	122910	23.11	36.55
5	123467	23.21	36.55
5	124024	23.31	36.55
5	124581	23.41	36.55
5	125138	23.51	36.55
5	125695	23.61	36.55
5	126252	23.71	36.55
5	126809	23.81	36.55
5	127366	23.91	36.55
5	127931	24.01	36.55
5	128488	24.11	36.55
5	129045	24.21	36.55
5	129602	24.31	36.55
5	130159	24.41	36.55
5	130716	24.51	36.55
5	131273	24.61	36.55
5	131830	24.71	36.55
5	132387	24.81	36.55
5	132944	24.91	36.55
5	133509	25.01	36.55
5	134066	25.11	36.55
5	134623	25.21	36.55
5	135180	25.31	36.55
5	135737	25.41	36.55
5	136294	25.51	36.55
5	136851	25.61	36.55
5	137408	25.71	36.55
5	137965	25.81	36.55
5	138522	25.91	36.55
5	139087	26.01	36.55
5	139644	26.11	36.55
5	140201	26.21	36.55
5	140758	26.31	36.55
5	141315	26.41	36.55
5	141872	26.51	36.55
5	142429	26.61	36.55
5	142986	26.71	36.55
5	143543	26.81	36.55
5	144100	26.91	36.55
5	144665	27.01	36.55
5	145222	27.11	36.55
5	145779	27.21	36.55
5	146336	27.31	36.55
5	146893	27.41	36.55
5	147450	27.51	36.55
5	148007	27.61	36.55
5	148564	27.71	36.55
5	149121	27.81	36.55
5	149678	27.91	36.55
5	150243	28.01	36.55
5	150800	28.11	36.55
5	151357	28.21	36.55
5	151914	28.31	36.55
5	152471	28.41	36.55
5	153028	28.51	36.55
5	153585	28.61	36.55
5	154142	28.71	36.55
5	154699	28.81	36.55
5	155256	28.91	36.55
5	155821	29.01	36.55
5	156378	29.11	36.55
5	156935	29.21	36.55
5	157492	29.31	36.55
5	158049	29.41	36.55
5	158606	29.51	36.55
5	159163	29.61	36.55
5	159720	29.71	36.55
5	160277	29.81	36.55
5	160834	29.91	36.55
5	161399	30.01	36.55
5	161956	30.11	36.55
5	162513	30.21	36.55
5	163070	30.31	36.55
5	163627	30.41	36.55
5	164184	30.51	36.55
5	164741	30.61	36.55
5	165298	30.71	36.55
5	165855	30.81	36.55
5	166412	30.91	36.55
5	166977	31.01	36.55
5	167534	31.11	36.55
5	168091	31.21	36.55
5	168648	31.31	36.55
5	169205	31.41	36.55
5	169762	31.51	36.55
5	170319	31.61	36.55
5	170876	31.71	36.55
5	171433	31.81	36.55
5	171990	31.91	36.55
5	172555	32.01	36.55
5	173112	32.11	36.55
5	173669	32.21	36.55
5	174226	32.31	36.55
5	174783	32.41	36.55
5	175340	32.51	36.55
5	175897	32.61	36.55
5	176454	32.71	36.55
5	177011	32.81	36.55
5	177568	32.91	36.55
5	178133	33.01	36.55
5	178690	33.11	36.55
5	179247	33.21	36.55
5	179804	33.31	36.55
5	180361	33.41	36.55
5	180918	33.51	36.55
5	181475	33.61	36.55
5	182032	33.71	36.55
5	182589	33.81	36.55
5	183146	33.91	36.55
5	183711	34.01	36.55
5	184268	34.11	36.55
5	184825	34.21	36.55
5	185382	34.31	36.55
5	185939	34.41	36.55
5	186496	34.51	36.55
5	187053	34.61	36.55
5	187610	34.71	36.55
5	188167	34.81	36.55
4	232	1.11	98.938725662631
4	788	1.21	102.27205887145
4	1344	1.31	105.60539208434
4	1900	1.41	108.93872530273
4	2456	1.51	112.2720585277
4	3012	1.61	115.60539176001
4	3568	1.71	118.93872500015
4	4124	1.81	122.27205824839
4	4680	1.91	125.60539150479
4	5244	2.01	128.93872476927
4	5800	2.11	132.27205804162
4	6356	2.21	135.60539132151
4	6912	2.31	138.93872460855
4	7468	2.41	142.27205790228
4	8024	2.51	145.60539120222
4	8580	2.61	148.93872450784
4	9136	2.71	152.27205781862
4	9692	2.81	155.60539113405
4	10248	2.91	158.9387244536
4	10812	3.01	162.27205777678
4	11368	3.11	165.60539110312
4	11924	3.21	168.93872443219
4	12480	3.31	172.27205776356
4	13036	3.41	175.60539109686
4	13592	3.51	178.93872443174
4	14148	3.61	182.27205776789
4	14704	3.71	185.60539110503
4	15260	3.81	188.93872444292
4	15816	3.91	192.27205778134
4	16380	4.01	195.6053911201
4	16936	4.11	198.93872445905
4	17492	4.21	202.27205779804
4	18048	4.31	205.60539113698
4	18604	4.41	208.93872447577
4	19160	4.51	212.27205781433
4	19716	4.61	215.60539115262
4	20272	4.71	218.9387244906
4	20828	4.81	222.27205782823
4	21384	4.91	225.60539116551
4	21949	5.01	228.93872450242
4	22506	5.11	232.27205920426
4	23063	5.21	235.60562040745
4	23620	5.31	238.94018170368
4	24177	5.41	242.27696772061
4	24734	5.51	245.61752844198
4	25291	5.61	248.96359873026
4	25848	5.71	252.31686406999
4	26405	5.81	255.67872650167
4	26962	5.91	259.0503363186
4	27527	6.01	262.43263716196
4	28084	6.11	265.82640314617
4	28641	6.21	269.23226931469
4	29198	6.31	272.65075662434
4	29755	6.41	276.08229244116
4	30312	6.51	279.52722732248
4	30869	6.61	282.98581901823
4	31426	6.71	286.45802109545
4	31983	6.81	289.9433070376
4	32540	6.91	293.44068806835
4	33105	7.01	296.9487494749
4	33662	7.11	300.46569414275
4	34219	7.21	303.98939214596
4	34776	7.31	307.51743522517
4	35333	7.41	311.04719544343
4	35890	7.51	314.57595987351
4	36447	7.61	318.10123070905
4	37004	7.71	321.62094080474
4	37561	7.81	325.13339438145
4	38118	7.91	328.63720030966
4	38683	8.01	332.13121737861
4	39240	8.11	335.61450939801
4	39797	8.21	339.08630836575
4	40354	8.31	342.54598425259
4	40911	8.41	345.99302021512
4	41468	8.51	349.42699226174
4	42025	8.61	352.84755257165
4	42582	8.71	356.25441581065
4	43139	8.81	359.6473479053
4	43696	8.91	363.02615683388
4	44261	9.01	366.39068507169
4	44818	9.11	369.74080339358
4	45375	9.21	373.07640578996
4	45932	9.31	376.39740529603
4	46489	9.41	379.70373057034
4	47046	9.51	382.99532535089
4	47603	9.61	386.27238493806
4	48160	9.71	389.53577065317
4	48717	9.81	392.78697425862
4	49274	9.91	396.02801286745
4	49839	10.01	399.26132431917
4	50396	10.11	402.48966433062
4	50953	10.21	405.71600566105
4	51510	10.31	408.94327652439
4	52067	10.41	412.17399822977
4	52624	10.51	415.41024560307
4	53181	10.61	418.65372072414
4	53738	10.71	421.90581989131
4	54295	10.81	425.16768855555
4	54852	10.91	428.44026638559
4	55417	11.01	431.7243242371
4	55974	11.11	435.0204944802
4	56531	11.21	438.32929587865
4	57088	11.31	441.65115399943
4	57645	11.41	444.98641795566
4	58202	11.51	448.33537414172
4	58759	11.61	451.69825750075
4	59316	11.71	455.07526076794
4	59873	11.81	458.46654205329
4	60430	11.91	461.87221626265
4	60995	12.01	465.29207836627
4	61552	12.11	468.72528304815
4	62109	12.21	472.17040120698
4	62666	12.31	475.62550695212
4	63223	12.41	479.08826639483
4	63780	12.51	482.5560268715
4	64337	12.61	486.02590617395
4	64894	12.71	489.49501555303
4	65451	12.81	492.96080923431
4	66008	12.91	496.42118811304
4	66573	13.01	499.8744301922
4	67130	13.11	503.31912283447
4	67687	13.21	506.75410718521
4	68244	13.31	510.17843258001
4	68801	13.41	513.59131914291
4	69358	13.51	516.99212710401
4	69915	13.61	520.38033162917
4	70472	13.71	523.75550217157
4	71029	13.81	527.11728553287
4	71586	13.91	530.46539196741
4	72151	14.01	533.79958378284
4	72708	14.11	537.11966598864
4	73265	14.21	540.42547862466
4	73822	14.31	543.71689046787
4	74379	14.41	546.99379465074
4	74936	14.51	550.2562577111
4	75493	14.61	553.50489495501
4	76050	14.71	556.74095011705
4	76607	14.81	559.96620901458
4	77164	14.91	563.18290513181
4	77729	15.01	566.39362507083
4	78286	15.11	569.60121475
4	78843	15.21	572.8086170431
4	79400	15.31	576.01854110332
4	79957	15.41	579.23322866644
4	80514	15.51	582.45451873655
4	81071	15.61	585.68391993754
4	81628	15.71	588.92266986648
4	82185	15.81	592.17178378398
4	82742	15.91	595.43209455739
4	83307	16.01	598.70428542801
4	83864	16.11	601.98891689168
4	84421	16.21	605.28644875021
4	84978	16.31	608.59725820123
4	85535	16.41	611.92165467819
4	86092	16.51	615.25989202426
4	86649	16.61	618.61217847929
4	87206	16.71	621.97868487247
4	87763	16.81	625.35955134323
4	88320	16.91	628.75489184027
4	88885	17.01	632.16460985958
4	89442	17.11	635.58800703092
4	89999	17.21	639.02376969302
4	90556	17.31	642.47005854907
4	91113	17.41	645.92460108701
4	91670	17.51	649.38478423228
4	92227	17.61	652.84774651746
4	92784	17.71	656.31056229747
4	93341	17.81	659.77057930814
4	93898	17.91	663.22560557765
4	94463	18.01	666.67384292563
4	95020	18.11	670.11381621786
4	95577	18.21	673.54431533052
4	96134	18.31	676.96434754057
4	96691	18.41	680.37309846935
4	97248	18.51	683.76990004272
4	97805	18.61	687.1542042072
4	98362	18.71	690.52556136804
4	98919	18.81	693.88360270095
4	99476	18.91	697.22802564156
4	100041	19.01	700.55858198169
4	100598	19.11	703.87506810419
4	101155	19.21	707.17731697209
4	101712	19.31	710.46519155686
4	102269	19.41	713.73858036615
4	102826	19.51	716.99756856585
4	103383	19.61	720.24282369295
4	103940	19.71	723.47563348163
4	104497	19.81	726.6978173916
4	105054	19.91	729.9116334495
4	105619	20.01	733.11968489457
4	106176	20.11	736.32482740508
4	106733	20.21	739.52999297298
4	107290	20.31	742.73785489441
4	107847	20.41	745.95062354037
4	108404	20.51	749.17011218496
4	108961	20.61	752.39780834451
4	109518	20.71	755.63493230049
4	110075	20.81	758.88248510876
4	110632	20.91	762.14128798377
4	111197	21.01	765.41201460741
4	111754	21.11	768.69521763346
4	112311	21.21	771.99135043053
4	112868	21.31	775.30078491876
4	113425	21.41	778.62382620224
4	113982	21.51	781.96072457256
4	114539	21.61	785.31168535601
4	115096	21.71	788.67687699167
4	115653	21.81	792.05643765824
4	116210	21.91	795.45047976175
4	116775	22.01	798.85891400997
4	117332	22.11	802.28106144318
4	117889	22.21	805.71562470116
4	118446	22.31	809.16077695684
4	119003	22.41	812.61425480127
4	119560	22.51	816.07345133789
4	120117	22.61	819.5355087322
4	120674	22.71	822.99749733689
4	121231	22.81	826.45675164691
4	121788	22.91	829.91106810744
4	122353	23.01	833.35863903603
4	122910	23.11	836.79798150348
4	123467	23.21	840.2278789913
4	124024	23.31	843.64733353064
4	124581	23.41	847.05552643945
4	125138	23.51	850.45178611331
4	125695	23.61	853.83556160264
4	126252	23.71	857.20640093694
4	126809	23.81	860.56393334294
4	127366	23.91	863.90785465742
4	127931	24.01	867.23791536063
4	128488	24.11	870.55391075944
4	129045	24.21	873.85567293419
4	129602	24.31	877.14306413229
4	130159	24.41	880.41597228617
4	130716	24.51	883.6744851564
4	131273	24.61	886.91927746363
4	131830	24.71	890.15164299572
4	132387	24.81	893.3734058456
4	132944	24.91	896.58682742469
4	133509	25.01	899.79451327217
4	134066	25.11	902.9993204222
4	134623	25.21	906.204179392
4	135180	25.31	909.41175857764
4	135737	25.41	912.62426406323
4	136294	25.51	915.8435056061
4	136851	25.61	919.07096783762
4	137408	25.71	922.30786867259
4	137965	25.81	925.55520722537
4	138522	25.91	928.81380311769
4	139087	26.01	932.08432872489
4	139644	26.11	935.36733562889
4	140201	26.21	938.66327631901
4	140758	26.31	941.97252199409
4	141315	26.41	945.29537716646
4	141872	26.51	948.6320916423
4	142429	26.61	951.98287034967
4	142986	26.71	955.34788140098
4	143543	26.81	958.72726270694
4	144100	26.91	962.12112646069
4	144665	27.01	965.52938433327
4	145222	27.11	968.9513600309
4	145779	27.21	972.38575843999
4	146336	27.31	975.83075445297
4	146893	27.41	979.28408591713
4	147450	27.51	982.74314678954
4	148007	27.61	986.20507973904
4	148564	27.71	989.66695457124
4	149121	27.81	993.12610396292
4	149678	27.91	996.58032276861
4	150243	28.01	1000.0278020009
4	150800	28.11	1003.4670576603
4	151357	28.21	1006.8968723499
4	151914	28.31	1010.3162473806
4	152471	28.41	1013.7243634794
4	153028	28.51	1017.120548557
4	153585	28.61	1020.5042512662
4	154142	28.71	1023.8750193102
4	154699	28.81	1027.232481648
4	155256	28.91	1030.5763338969
4	155821	29.01	1033.906326357
4	156378	29.11	1037.2222541874
4	156935	29.21	1040.5239493473
4	157492	29.31	1043.8112739846
4	158049	29.41	1047.0841159527
4	158606	29.51	1050.3425633698
4	159163	29.61	1053.5872919458
4	159720	29.71	1056.8195963022
4	160277	29.81	1060.0413011702
4	160834	29.91	1063.2546684273
4	161399	30.01	1066.4623039296
4	161956	30.11	1069.6670648979
4	162513	30.21	1072.8718816465
4	163070	30.31	1076.0794218967
4	163627	30.41	1079.2918911424
4	164184	30.51	1082.5110986566
4	164741	30.61	1085.7385286734
4	165298	30.71	1088.9753987817
4	165855	30.81	1092.2227078287
4	166412	30.91	1095.4812752166
4	166977	31.01	1098.7517731409
4	167534	31.11	1102.034753036
4	168091	31.21	1105.33066727
4	168648	31.31	1108.6398869426
4	169205	31.41	1111.9627164845
4	169762	31.51	1115.2994056352
4	170319	31.61	1118.6501592677
4	170876	31.71	1122.0151454496
4	171433	31.81	1125.3945020546
4	171990	31.91	1128.7883412467
4	172555	32.01	1132.1965748294
4	173112	32.11	1135.6185268761
4	173669	32.21	1139.0529025828
4	174226	32.31	1142.4978770785
4	174783	32.41	1145.9511883836
4	175340	32.51	1149.4102305727
4	175897	32.61	1152.8721463841
4	176454	32.71	1156.3340055478
4	177011	32.81	1159.7931404905
4	177568	32.91	1163.2473458474
4	178133	33.01	1166.6948124516
4	178690	33.11	1170.1340561559
4	179247	33.21	1173.5638594428
4	179804	33.31	1176.9832235238
4	180361	33.41	1180.3913290445
4	180918	33.51	1183.787503849
4	181475	33.61	1187.171196535
4	182032	33.71	1190.5419547611
4	182589	33.81	1193.8994074493
4	183146	33.91	1197.2432501866
4	183711	34.01	1200.5732332485
4	184268	34.11	1203.8891517735
4	184825	34.21	1207.1908377043
4	185382	34.31	1210.478153175
4	185939	34.41	1213.7509860282
4	186496	34.51	1217.0094244312
4	187053	34.61	1220.2541442303
4	187610	34.71	1223.4864401618
4	188167	34.81	1226.7081370446
3	232	1.11	33.333332070582
3	788	1.21	33.333332100049
3	1344	1.31	33.333332146342
3	1900	1.41	33.333332205608
3	2456	1.51	33.333332274454
3	3012	1.61	33.333332349923
3	3568	1.71	33.333332429473
3	4124	1.81	33.333332510943
3	4680	1.91	33.333332592527
3	5244	2.01	33.333332672741
3	5800	2.11	33.333332750393
3	6356	2.21	33.33333282455
3	6912	2.31	33.33333289451
3	7468	2.41	33.333332959772
3	8024	2.51	33.33333302001
3	8580	2.61	33.333333075046
3	9136	2.71	33.333333124827
3	9692	2.81	33.333333169405
3	10248	2.91	33.333333208914
3	10812	3.01	33.333333243557
3	11368	3.11	33.333333273586
3	11924	3.21	33.333333299293
3	12480	3.31	33.333333320991
3	13036	3.41	33.333333339013
3	13592	3.51	33.333333353695
3	14148	3.61	33.333333365375
3	14704	3.71	33.333333374381
3	15260	3.81	33.333333381033
3	15816	3.91	33.333333385635
3	16380	4.01	33.333333388471
3	16936	4.11	33.33333338981
3	17492	4.21	33.333333389894
3	18048	4.31	33.33333338895
3	18604	4.41	33.333333387177
3	19160	4.51	33.333333384757
3	19716	4.61	33.333333381849
3	20272	4.71	33.333333378594
3	20828	4.81	33.333333375112
3	21384	4.91	33.333333371506
3	21949	5.01	33.333333367863
3	22506	5.11	33.333401628544
3	23063	5.21	33.337615197889
3	23620	5.31	33.351331457648
3	24177	5.41	33.378611875711
3	24734	5.51	33.422277525915
3	25291	5.61	33.483619363034
3	25848	5.71	33.560883289289
3	26405	5.81	33.651214374853
3	26962	5.91	33.75226508234
3	27527	6.01	33.862109613447
3	28084	6.11	33.97916814281
3	28641	6.21	34.102144663378
3	29198	6.31	34.229975997969
3	29755	6.41	34.36178997099
3	30312	6.51	34.49686951103
3	30869	6.61	34.63394454499
3	31426	6.71	34.768907460539
3	31983	6.81	34.896940693623
3	32540	6.91	35.013537294543
3	33105	7.01	35.114580456764
3	33662	7.11	35.196411611993
3	34219	7.21	35.255886909516
3	34776	7.31	35.290421999417
3	35333	7.41	35.298048086563
3	35890	7.51	35.278759124112
3	36447	7.61	35.23598770154
3	37004	7.71	35.17395248273
3	37561	7.81	35.096114241429
3	38118	7.91	35.005312017494
3	38683	8.01	34.903874812445
3	39240	8.11	34.79371321872
3	39797	8.21	34.676394587578
3	40354	8.31	34.553204692958
3	40911	8.41	34.425198317326
3	41468	8.51	34.293240749685
3	42025	8.61	34.158041828395
3	42582	8.71	34.020183868152
3	43139	8.81	33.880144569824
3	43696	8.91	33.738315814505
3	44261	9.01	33.595019081188
3	44818	9.11	33.450518094614
3	45375	9.21	33.30502920093
3	45932	9.31	33.158729879327
3	46489	9.41	33.011765724558
3	47046	9.51	32.864353863035
3	47603	9.61	32.721012496936
3	48160	9.71	32.588643994693
3	48717	9.81	32.473185082585
3	49274	9.91	32.37952165218
3	49839	10.01	32.31149760861
3	50396	10.11	32.271937243073
3	50953	10.21	32.262628456892
3	51510	10.31	32.281431757463
3	52067	10.41	32.323804768138
3	52624	10.51	32.385513150424
3	53181	10.61	32.463083271939
3	53738	10.71	32.553665544264
3	54295	10.81	32.654922312383
3	54852	10.91	32.764935884979
3	55417	11.01	32.88213308724
3	55974	11.11	33.005223367884
3	56531	11.21	33.13314802536
3	57088	11.31	33.265038555652
3	57645	11.41	33.400182482965
3	58202	11.51	33.537995328993
3	58759	11.61	33.677997617952
3	59316	11.71	33.819796012697
3	59873	11.81	33.96306783977
3	60430	11.91	34.107141747152
3	60995	12.01	34.246982852793
3	61552	12.11	34.376202942323
3	62109	12.21	34.489264817717
3	62666	12.31	34.581509590607
3	63223	12.41	34.649169726167
3	63780	12.51	34.689368787218
3	64337	12.61	34.7001510107
3	64894	12.71	34.682882928545
3	65451	12.81	34.641769331689
3	66008	12.91	34.581094107388
3	66573	13.01	34.504371535269
3	67130	13.11	34.414484548651
3	67687	13.21	34.313798156979
3	68244	13.31	34.204252491731
3	68801	13.41	34.087439136468
3	69358	13.51	33.964663744057
3	69915	13.61	33.836997404607
3	70472	13.71	33.705318785069
3	71029	13.81	33.570348698382
3	71586	13.91	33.432678462216
3	72151	14.01	33.292793163015
3	72708	14.11	33.151090740619
3	73265	14.21	33.0078976443
3	73822	14.31	32.863481676162
3	74379	14.41	32.718101580034
3	74936	14.51	32.574886427257
3	75493	14.61	32.440114751869
3	76050	14.71	32.319814522883
3	76607	14.81	32.219077485442
3	77164	14.91	32.142048757657
3	77729	15.01	32.091930244201
3	78286	15.11	32.070975264143
3	78843	15.21	32.079224413257
3	79400	15.31	32.112939343728
3	79957	15.41	32.167545084638
3	80514	15.51	32.239288566376
3	81071	15.61	32.325090964666
3	81628	15.71	32.422426571247
3	82185	15.81	32.529223425642
3	82742	15.91	32.643781798595
3	83307	16.01	32.764707320103
3	83864	16.11	32.890856121102
3	84421	16.21	33.021289830551
3	84978	16.31	33.155238657363
3	85535	16.41	33.292071104728
3	86092	16.51	33.43126912531
3	86649	16.61	33.572407739859
3	87206	16.71	33.715138317369
3	87763	16.81	33.859174858989
3	88320	16.91	34.00423217336
3	88885	17.01	34.146527003479
3	89442	17.11	34.279561763556
3	89999	17.21	34.397486339902
3	90556	17.31	34.49536634699
3	91113	17.41	34.569194390325
3	91670	17.51	34.615887710296
3	92227	17.61	34.633302198405
3	92784	17.71	34.621906345921
3	93341	17.81	34.585610022692
3	93898	17.91	34.528886640621
3	94463	18.01	34.455405955556
3	95020	18.11	34.368178445471
3	95577	18.21	34.269673750852
3	96134	18.31	34.161917837073
3	96691	18.41	34.046572701384
3	97248	18.51	33.925001760404
3	97805	18.61	33.798323490638
3	98362	18.71	33.667455432386
3	98919	18.81	33.533150288272
3	99476	18.91	33.396025536615
3	100041	19.01	33.256587724703
3	100598	19.11	33.115252397745
3	101155	19.21	32.972360447543
3	101712	19.31	32.828191524111
3	102269	19.41	32.683020974216
3	102826	19.51	32.540389451904
3	103383	19.61	32.406715289624
3	103940	19.71	32.287914451662
3	104497	19.81	32.188979592244
3	105054	19.91	32.113969109672
3	105619	20.01	32.066009892824
3	106176	20.11	32.047286503659
3	106733	20.21	32.057518927939
3	107290	20.31	32.092860834819
3	107847	20.41	32.148801263061
3	108404	20.51	32.221639653283
3	108961	20.61	32.308340257886
3	109518	20.71	32.406412706488
3	110075	20.81	32.513814027983
3	110632	20.91	32.628868274494
3	111197	21.01	32.750200585031
3	111754	21.11	32.87668309472
3	112311	21.21	33.007390561525
3	112868	21.31	33.141563964718
3	113425	21.41	33.278580642935
3	113982	21.51	33.417929796984
3	114539	21.61	33.559192393615
3	115096	21.71	33.702024679617
3	115653	21.81	33.846144657624
3	116210	21.91	33.99127355855
3	116775	22.01	34.133781378533
3	117332	22.11	34.267219468202
3	117889	22.21	34.385696284949
3	118446	22.31	34.484240786262
3	119003	22.41	34.558813492781
3	119560	22.51	34.606303886233
3	120117	22.61	34.624542412731
3	120674	22.71	34.61387898274
3	121231	22.81	34.578183501056
3	121788	22.91	34.521953018326
3	122353	23.01	34.448876682398
3	122910	23.11	34.361980879439
3	123467	23.21	34.263748300197
3	124024	23.31	34.156215615805
3	124581	23.41	34.041053605964
3	125138	23.51	33.919632891962
3	125695	23.61	33.793077860643
3	126252	23.71	33.66231090084
3	126809	23.81	33.528088692668
3	127366	23.91	33.391031977369
3	127931	24.01	33.251649978969
3	128488	24.11	33.110360438529
3	129045	24.21	32.967506049221
3	129602	24.31	32.823367938803
3	130159	24.41	32.67822360761
3	130716	24.51	32.535669905051
3	131273	24.61	32.402144231196
3	131830	24.71	32.283547191314
3	132387	24.81	32.184857847866
3	132944	24.91	32.110122700925
3	133509	25.01	32.062458343834
3	134066	25.11	32.044039899942
3	134623	25.21	32.054543396576
3	135180	25.31	32.090107677201
3	135737	25.41	32.146230529366
3	136294	25.51	32.219218570743
3	136851	25.61	32.306041941417
3	137408	25.71	32.404215100957
3	137965	25.81	32.511699040498
3	138522	25.91	32.626821062583
3	139087	26.01	32.748208972697
3	139644	26.11	32.874737093404
3	140201	26.21	33.00548197713
3	140758	26.31	33.139686075231
3	141315	26.41	33.276727933964
3	141872	26.51	33.416097744805
3	142429	26.61	33.557377287201
3	142986	26.71	33.700223474632
3	143543	26.81	33.844354856653
3	144100	26.91	33.989493462117
3	144665	27.01	34.132030137959
3	145222	27.11	34.265523309485
3	145779	27.21	34.384075734601
3	146336	27.31	34.482711327072
3	146893	27.41	34.557386192231
3	147450	27.51	34.604985991209
3	148007	27.61	34.623337667502
3	148564	27.71	34.612774819361
3	149121	27.81	34.577161849829
3	149678	27.91	34.520999055801
3	150243	28.01	34.447978248185
3	150800	28.11	34.361127997782
3	151357	28.21	34.262932787503
3	151914	28.31	34.155430758675
3	152471	28.41	34.040293897074
3	153028	28.51	33.918893813388
3	153585	28.61	33.792355706113
3	154142	28.71	33.661602629922
3	154699	28.81	33.527391811146
3	155256	28.91	33.39034443912
3	155821	29.01	33.250970105458
3	156378	29.11	33.109686852772
3	156935	29.21	32.966837621612
3	157492	29.31	32.822703742673
3	158049	29.41	32.677563012382
3	158606	29.51	32.53502001788
3	159163	29.61	32.401514784645
3	159720	29.71	32.282945802856
3	160277	29.81	32.184290263234
3	160834	29.91	32.109593027321
3	161399	30.01	32.061969270629
3	161956	30.11	32.043592816673
3	162513	30.21	32.054133639286
3	163070	30.31	32.089728540214
3	163627	30.41	32.145876511694
3	164184	30.51	32.218885159657
3	164741	30.61	32.305725434909
3	165298	30.71	32.403912462091
3	165855	30.81	32.511407777928
3	166412	30.91	32.626539132538
3	166977	31.01	32.747934698574
3	167534	31.11	32.874469099802
3	168091	31.21	33.005219135744
3	168648	31.31	33.139427460457
3	169205	31.41	33.276472786482
3	169762	31.51	33.415845441712
3	170319	31.61	33.557127317498
3	170876	31.71	33.69997541912
3	171433	31.81	33.844108371445
3	171990	31.91	33.989248313206
3	172555	32.01	34.131788962834
3	173112	32.11	34.265289719931
3	173669	32.21	34.383852557486
3	174226	32.31	34.482500694658
3	174783	32.41	34.557189628713
3	175340	32.51	34.604804494622
3	175897	32.61	34.623171753508
3	176454	32.71	34.612622757152
3	177011	32.81	34.577021150908
3	177568	32.91	34.520867678733
3	178133	33.01	34.447854518284
3	178690	33.11	34.361010541222
3	179247	33.21	34.262820477267
3	179804	33.31	34.155322670218
3	180361	33.41	34.040189271946
3	180918	33.51	33.918792029396
3	181475	33.61	33.792256252841
3	182032	33.71	33.661505088653
3	182589	33.81	33.527295838386
3	183146	33.91	33.390249753082
3	183711	34.01	33.250876474981
3	184268	34.11	33.109594088223
3	184825	34.21	32.966745567426
3	185382	34.31	32.822612271231
3	185939	34.41	32.677472036844
3	186496	34.51	32.534930517026
3	187053	34.61	32.40142809882
3	187610	34.71	32.28286298112
3	188167	34.81	32.184212096876
1	232	1.11	0
1	788	1.21	0
1	1344	1.31	0
1	1900	1.41	0
1	2456	1.51	0
1	3012	1.61	0
1	3568	1.71	0
1	4124	1.81	0
1	4680	1.91	0
1	5244	2.01	0
1	5800	2.11	0
1	6356	2.21	0
1	6912	2.31	0
1	7468	2.41	0
1	8024	2.51	0
1	8580	2.61	0
1	9136	2.71	0
1	9692	2.81	0
1	10248	2.91	0
1	10812	3.01	0
1	11368	3.11	0
1	11924	3.21	0
1	12480	3.31	0
1	13036	3.41	0
1	13592	3.51	0
1	14148	3.61	0
1	14704	3.71	0
1	15260	3.81	0
1	15816	3.91	0
1	16380	4.01	0
1	16936	4.11	0
1	17492	4.21	0
1	18048	4.31	0
1	18604	4.41	0
1	19160	4.51	0
1	19716	4.61	0
1	20272	4.71	0
1	20828	4.81	0
1	21384	4.91	0
1	21949	5.01	0
1	22506	5.11	0
1	23063	5.21	0
1	23620	5.31	0
1	24177	5.41	0
1	24734	5.51	0
1	25291	5.61	0
1	25848	5.71	0
1	26405	5.81	0
1	26962	5.91	0
1	27527	6.01	0
1	28084	6.11	0
1	28641	6.21	0
1	29198	6.31	0
1	29755	6.41	0
1	30312	6.51	0
1	30869	6.61	0
1	31426	6.71	0
1	31983	6.81	0
1	32540	6.91	0
1	33105	7.01	0
1	33662	7.11	0
1	34219	7.21	0
1	34776	7.31	0
1	35333	7.41	0
1	35890	7.51	0
1	36447	7.61	0
1	37004	7.71	0
1	37561	7.81	0
1	38118	7.91	0
1	38683	8.01	0
1	39240	8.11	0
1	39797	8.21	0
1	40354	8.31	0
1	40911	8.41	0
1	41468	8.51	0
1	42025	8.61	0
1	42582	8.71	0
1	43139	8.81	0
1	43696	8.91	0
1	44261	9.01	0
1	44818	9.11	0
1	45375	9.21	0
1	45932	9.31	0
1	46489	9.41	0
1	47046	9.51	0
1	47603	9.61	0
1	48160	9.71	0
1	48717	9.81	0
1	49274	9.91	0
1	49839	10.01	0
1	50396	10.11	0
1	50953	10.21	0
1	51510	10.31	0
1	52067	10.41	0
1	52624	10.51	0
1	53181	10.61	0
1	53738	10.71	0
1	54295	10.81	0
1	54852	10.91	0
1	55417	11.01	0
1	55974	11.11	0
1	56531	11.21	0
1	57088	11.31	0
1	57645	11.41	0
1	58202	11.51	0
1	58759	11.61	0
1	59316	11.71	0
1	59873	11.81	0
1	60430	11.91	0
1	60995	12.01	0
1	61552	12.11	0
1	62109	12.21	0
1	62666	12.31	0
1	63223	12.41	0
1	63780	12.51	0
1	64337	12.61	0
1	64894	12.71	0
1	65451	12.81	0
1	66008	12.91	0
1	66573	13.01	0
1	67130	13.11	0
1	67687	13.21	0
1	68244	13.31	0
1	68801	13.41	0
1	69358	13.51	0
1	69915	13.61	0
1	70472	13.71	0
1	71029	13.81	0
1	71586	13.91	0
1	72151	14.01	0
1	72708	14.11	0
1	73265	14.21	0
1	73822	14.31	0
1	74379	14.41	0
1	74936	14.51	0
1	75493	14.61	0
1	76050	14.71	0
1	76607	14.81	0
1	77164	14.91	0
1	77729	15.01	0
1	78286	15.11	0
1	78843	15.21	0
1	79400	15.31	0
1	79957	15.41	0
1	80514	15.51	0
1	81071	15.61	0
1	81628	15.71	0
1	82185	15.81	0
1	82742	15.91	0
1	83307	16.01	0
1	83864	16.11	0
1	84421	16.21	0
1	84978	16.31	0
1	85535	16.41	0
1	86092	16.51	0
1	86649	16.61	0
1	87206	16.71	0
1	87763	16.81	0
1	88320	16.91	0
1	88885	17.01	0
1	89442	17.11	0
1	89999	17.21	0
1	90556	17.31	0
1	91113	17.41	0
1	91670	17.51	0
1	92227	17.61	0
1	92784	17.71	0
1	93341	17.81	0
1	93898	17.91	0
1	94463	18.01	0
1	95020	18.11	0
1	95577	18.21	0
1	96134	18.31	0
1	96691	18.41	0
1	97248	18.51	0
1	97805	18.61	0
1	98362	18.71	0
1	98919	18.81	0
1	99476	18.91	0
1	100041	19.01	0
1	100598	19.11	0
1	101155	19.21	0
1	101712	19.31	0
1	102269	19.41	0
1	102826	19.51	0
1	103383	19.61	0
1	103940	19.71	0
1	104497	19.81	0
1	105054	19.91	0
1	105619	20.01	0
1	106176	20.11	0
1	106733	20.21	0
1	107290	20.31	0
1	107847	20.41	0
1	108404	20.51	0
1	108961	20.61	0
1	109518	20.71	0
1	110075	20.81	0
1	110632	20.91	0
1	111197	21.01	0
1	111754	21.11	0
1	112311	21.21	0
1	112868	21.31	0
1	113425	21.41	0
1	113982	21.51	0
1	114539	21.61	0
1	115096	21.71	0
1	115653	21.81	0
1	116210	21.91	0
1	116775	22.01	0
1	117332	22.11	0
1	117889	22.21	0
1	118446	22.31	0
1	119003	22.41	0
1	119560	22.51	0
1	120117	22.61	0
1	120674	22.71	0
1	121231	22.81	0
1	121788	22.91	0
1	122353	23.01	0
1	122910	23.11	0
1	123467	23.21	0
1	124024	23.31	0
1	124581	23.41	0
1	125138	23.51	0
1	125695	23.61	0
1	126252	23.71	0
1	126809	23.81	0
1	127366	23.91	0
1	127931	24.01	0
1	128488	24.11	0
1	129045	24.21	0
1	129602	24.31	0
1	130159	24.41	0
1	130716	24.51	0
1	131273	24.61	0
1	131830	24.71	0
1	132387	24.81	0
1	132944	24.91	0
1	133509	25.01	0
1	134066	25.11	0
1	134623	25.21	0
1	135180	25.31	0
1	135737	25.41	0
1	136294	25.51	0
1	136851	25.61	0
1	137408	25.71	0
1	137965	25.81	0
1	138522	25.91	0
1	139087	26.01	0
1	139644	26.11	0
1	140201	26.21	0
1	140758	26.31	0
1	141315	26.41	0
1	141872	26.51	0
1	142429	26.61	0
1	142986	26.71	0
1	143543	26.81	0
1	144100	26.91	0
1	144665	27.01	0
1	145222	27.11	0
1	145779	27.21	0
1	146336	27.31	0
1	146893	27.41	0
1	147450	27.51	0
1	148007	27.61	0
1	148564	27.71	0
1	149121	27.81	0
1	149678	27.91	0
1	150243	28.01	0
1	150800	28.11	0
1	151357	28.21	0
1	151914	28.31	0
1	152471	28.41	0
1	153028	28.51	0
1	153585	28.61	0
1	154142	28.71	0
1	154699	28.81	0
1	155256	28.91	0
1	155821	29.01	0
1	156378	29.11	0
1	156935	29.21	0
1	157492	29.31	0
1	158049	29.41	0
1	158606	29.51	0
1	159163	29.61	0
1	159720	29.71	0
1	160277	29.81	0
1	160834	29.91	0
1	161399	30.01	0
1	161956	30.11	0
1	162513	30.21	0
1	163070	30.31	0
1	163627	30.41	0
1	164184	30.51	0
1	164741	30.61	0
1	165298	30.71	0
1	165855	30.81	0
1	166412	30.91	0
1	166977	31.01	0
1	167534	31.11	0
1	168091	31.21	0
1	168648	31.31	0
1	169205	31.41	0
1	169762	31.51	0
1	170319	31.61	0
1	170876	31.71	0
1	171433	31.81	0
1	171990	31.91	0
1	172555	32.01	0
1	173112	32.11	0
1	173669	32.21	0
1	174226	32.31	0
1	174783	32.41	0
1	175340	32.51	0
1	175897	32.61	0
1	176454	32.71	0
1	177011	32.81	0
1	177568	32.91	0
1	178133	33.01	0
1	178690	33.11	0
1	179247	33.21	0
1	179804	33.31	0
1	180361	33.41	0
1	180918	33.51	0
1	181475	33.61	0
1	182032	33.71	0
1	182589	33.81	0
1	183146	33.91	0
1	183711	34.01	0
1	184268	34.11	0
1	184825	34.21	0
1	185382	34.31	0
1	185939	34.41	0
1	186496	34.51	0
1	187053	34.61	0
1	187610	34.71	0
1	188167	34.81	0
0	232	1.11	-1
0	788	1.21	-1
0	1344	1.31	-1
0	1900	1.41	-1
0	2456	1.51	-1
0	3012	1.61	-1
0	3568	1.71	-1
0	4124	1.81	-1
0	4680	1.91	-1
0	5244	2.01	-1
0	5800	2.11	-1
0	6356	2.21	-1
0	6912	2.31	-1
0	7468	2.41	-1
0	8024	2.51	-1
0	8580	2.61	-1
0	9136	2.71	-1
0	9692	2.81	-1
0	10248	2.91	-1
0	10812	3.01	-1
0	11368	3.11	-1
0	11924	3.21	-1
0	12480	3.31	-1
0	13036	3.41	-1
0	13592	3.51	-1
0	14148	3.61	-1
0	14704	3.71	-1
0	15260	3.81	-1
0	15816	3.91	-1
0	16380	4.01	-1
0	16936	4.11	-1
0	17492	4.21	-1
0	18048	4.31	-1
0	18604	4.41	-1
0	19160	4.51	-1
0	19716	4.61	-1
0	20272	4.71	-1
0	20828	4.81	-1
0	21384	4.91	-1
0	21949	5.01	-1
0	22506	5.11	-1
0	23063	5.21	-1
0	23620	5.31	-1
0	24177	5.41	-1
0	24734	5.51	-1
0	25291	5.61	-1
0	25848	5.71	-1
0	26405	5.81	-1
0	26962	5.91	-1
0	27527	6.01	-1
0	28084	6.11	-1
0	28641	6.21	-1
0	29198	6.31	-1
0	29755	6.41	-1
0	30312	6.51	-1
0	30869	6.61	-1
0	31426	6.71	-1
0	31983	6.81	-1
0	32540	6.91	-1
0	33105	7.01	-1
0	33662	7.11	-1
0	34219	7.21	-1
0	34776	7.31	-1
0	35333	7.41	-1
0	35890	7.51	-1
0	36447	7.61	-1
0	37004	7.71	-1
0	37561	7.81	-1
0	38118	7.91	-1
0	38683	8.01	-1
0	39240	8.11	-1
0	39797	8.21	-1
0	40354	8.31	-1
0	40911	8.41	-1
0	41468	8.51	-1
0	42025	8.61	-1
0	42582	8.71	-1
0	43139	8.81	-1
0	43696	8.91	-1
0	44261	9.01	-1
0	44818	9.11	-1
0	45375	9.21	-1
0	45932	9.31	-1
0	46489	9.41	-1
0	47046	9.51	-1
0	47603	9.61	-1
0	48160	9.71	-1
0	48717	9.81	-1
0	49274	9.91	-1
0	49839	10.01	-1
0	50396	10.11	-1
0	50953	10.21	-1
0	51510	10.31	-1
0	52067	10.41	-1
0	52624	10.51	-1
0	53181	10.61	-1
0	53738	10.71	-1
0	54295	10.81	-1
0	54852	10.91	-1
0	55417	11.01	-1
0	55974	11.11	-1
0	56531	11.21	-1
0	57088	11.31	-1
0	57645	11.41	-1
0	58202	11.51	-1
0	58759	11.61	-1
0	59316	11.71	-1
0	59873	11.81	-1
0	60430	11.91	-1
0	60995	12.01	-1
0	61552	12.11	-1
0	62109	12.21	-1
0	62666	12.31	-1
0	63223	12.41	-1
0	63780	12.51	-1
0	64337	12.61	-1
0	64894	12.71	-1
0	65451	12.81	-1
0	66008	12.91	-1
0	66573	13.01	-1
0	67130	13.11	-1
0	67687	13.21	-1
0	68244	13.31	-1
0	68801	13.41	-1
0	69358	13.51	-1
0	69915	13.61	-1
0	70472	13.71	-1
0	71029	13.81	-1
0	71586	13.91	-1
0	72151	14.01	-1
0	72708	14.11	-1
0	73265	14.21	-1
0	73822	14.31	-1
0	74379	14.41	-1
0	74936	14.51	-1
0	75493	14.61	-1
0	76050	14.71	-1
0	76607	14.81	-1
0	77164	14.91	-1
0	77729	15.01	-1
0	78286	15.11	-1
0	78843	15.21	-1
0	79400	15.31	-1
0	79957	15.41	-1
0	80514	15.51	-1
0	81071	15.61	-1
0	81628	15.71	-1
0	82185	15.81	-1
0	82742	15.91	-1
0	83307	16.01	-1
0	83864	16.11	-1
0	84421	16.21	-1
0	84978	16.31	-1
0	85535	16.41	-1
0	86092	16.51	-1
0	86649	16.61	-1
0	87206	16.71	-1
0	87763	16.81	-1
0	88320	16.91	-1
0	88885	17.01	-1
0	89442	17.11	-1
0	89999	17.21	-1
0	90556	17.31	-1
0	91113	17.41	-1
0	91670	17.51	-1
0	92227	17.61	-1
0	92784	17.71	-1
0	93341	17.81	-1
0	93898	17.91	-1
0	94463	18.01	-1
0	95020	18.11	-1
0	95577	18.21	-1
0	96134	18.31	-1
0	96691	18.41	-1
0	97248	18.51	-1
0	97805	18.61	-1
0	98362	18.71	-1
0	98919	18.81	-1
0	99476	18.91	-1
0	100041	19.01	-1
0	100598	19.11	-1
0	101155	19.21	-1
0	101712	19.31	-1
0	102269	19.41	-1
0	102826	19.51	-1
0	103383	19.61	-1
0	103940	19.71	-1
0	104497	19.81	-1
0	105054	19.91	-1
0	105619	20.01	-1
0	106176	20.11	-1
0	106733	20.21	-1
0	107290	20.31	-1
0	107847	20.41	-1
0	108404	20.51	-1
0	108961	20.61	-1
0	109518	20.71	-1
0	110075	20.81	-1
0	110632	20.91	-1
0	111197	21.01	-1
0	111754	21.11	-1
0	112311	21.21	-1
0	112868	21.31	-1
0	113425	21.41	-1
0	113982	21.51	-1
0	114539	21.61	-1
0	115096	21.71	-1
0	115653	21.81	-1
0	116210	21.91	-1
0	116775	22.01	-1
0	117332	22.11	-1
0	117889	22.21	-1
0	118446	22.31	-1
0	119003	22.41	-1
0	119560	22.51	-1
0	120117	22.61	-1
0	120674	22.71	-1
0	121231	22.81	-1
0	121788	22.91	-1
0	122353	23.01	-1
0	122910	23.11	-1
0	123467	23.21	-1
0	124024	23.31	-1
0	124581	23.41	-1
0	125138	23.51	-1
0	125695	23.61	-1
0	126252	23.71	-1
0	126809	23.81	-1
0	127366	23.91	-1
0	127931	24.01	-1
0	128488	24.11	-1
0	129045	24.21	-1
0	129602	24.31	-1
0	130159	24.41	-1
0	130716	24.51	-1
0	131273	24.61	-1
0	131830	24.71	-1
0	132387	24.81	-1
0	132944	24.91	-1
0	133509	25.01	-1
0	134066	25.11	-1
0	134623	25.21	-1
0	135180	25.31	-1
0	135737	25.41	-1
0	136294	25.51	-1
0	136851	25.61	-1
0	137408	25.71	-1
0	137965	25.81	-1
0	138522	25.91	-1
0	139087	26.01	-1
0	139644	26.11	-1
0	140201	26.21	-1
0	140758	26.31	-1
0	141315	26.41	-1
0	141872	26.51	-1
0	142429	26.61	-1
0	142986	26.71	-1
0	143543	26.81	-1
0	144100	26.91	-1
0	144665	27.01	-1
0	145222	27.11	-1
0	145779	27.21	-1
0	146336	27.31	-1
0	146893	27.41	-1
0	147450	27.51	-1
0	148007	27.61	-1
0	148564	27.71	-1
0	149121	27.81	-1
0	149678	27.91	-1
0	150243	28.01	-1
0	150800	28.11	-1
0	151357	28.21	-1
0	151914	28.31	-1
0	152471	28.41	-1
0	153028	28.51	-1
0	153585	28.61	-1
0	154142	28.71	-1
0	154699	28.81	-1
0	155256	28.91	-1
0	155821	29.01	-1
0	156378	29.11	-1
0	156935	29.21	-1
0	157492	29.31	-1
0	158049	29.41	-1
0	158606	29.51	-1
0	159163	29.61	-1
0	159720	29.71	-1
0	160277	29.81	-1
0	160834	29.91	-1
0	161399	30.01	-1
0	161956	30.11	-1
0	162513	30.21	-1
0	163070	30.31	-1
0	163627	30.41	-1
0	164184	30.51	-1
0	164741	30.61	-1
0	165298	30.71	-1
0	165855	30.81	-1
0	166412	30.91	-1
0	166977	31.01	-1
0	167534	31.11	-1
0	168091	31.21	-1
0	168648	31.31	-1
0	169205	31.41	-1
0	169762	31.51	-1
0	170319	31.61	-1
0	170876	31.71	-1
0	171433	31.81	-1
0	171990	31.91	-1
0	172555	32.01	-1
0	173112	32.11	-1
0	173669	32.21	-1
0	174226	32.31	-1
0	174783	32.41	-1
0	175340	32.51	-1
0	175897	32.61	-1
0	176454	32.71	-1
0	177011	32.81	-1
0	177568	32.91	-1
0	178133	33.01	-1
0	178690	33.11	-1
0	179247	33.21	-1
0	179804	33.31	-1
0	180361	33.41	-1
0	180918	33.51	-1
0	181475	33.61	-1
0	182032	33.71	-1
0	182589	33.81	-1
0	183146	33.91	-1
0	183711	34.01	-1
0	184268	34.11	-1
0	184825	34.21	-1
0	185382	34.31	-1
0	185939	34.41	-1
0	186496	34.51	-1
0	187053	34.61	-1
0	187610	34.71	-1
0	188167	34.81	-1
2	232	1.11	0
2	788	1.21	0
2	1344	1.31	0
2	1900	1.41	0
2	2456	1.51	0
2	3012	1.61	0
2	3568	1.71	0
2	4124	1.81	0
2	4680	1.91	0
2	5244	2.01	0
2	5800	2.11	0
2	6356	2.21	0
2	6912	2.31	0
2	7468	2.41	0
2	8024	2.51	0
2	8580	2.61	0
2	9136	2.71	0
2	9692	2.81	0
2	10248	2.91	0
2	10812	3.01	0
2	11368	3.11	0
2	11924	3.21	0
2	12480	3.31	0
2	13036	3.41	0
2	13592	3.51	0
2	14148	3.61	0
2	14704	3.71	0
2	15260	3.81	0
2	15816	3.91	0
2	16380	4.01	0
2	16936	4.11	0
2	17492	4.21	0
2	18048	4.31	0
2	18604	4.41	0
2	19160	4.51	0
2	19716	4.61	0
2	20272	4.71	0
2	20828	4.81	0
2	21384	4.91	0
2	21949	5.01	0
2	22506	5.11	0
2	23063	5.21	0
2	23620	5.31	0
2	24177	5.41	0
2	24734	5.51	0
2	25291	5.61	0
2	25848	5.71	0
2	26405	5.81	0
2	26962	5.91	0
2	27527	6.01	0
2	28084	6.11	0
2	28641	6.21	0
2	29198	6.31	0
2	29755	6.41	0
2	30312	6.51	0
2	30869	6.61	0
2	31426	6.71	0
2	31983	6.81	0
2	32540	6.91	0
2	33105	7.01	0
2	33662	7.11	0
2	34219	7.21	0
2	34776	7.31	0
2	35333	7.41	0
2	35890	7.51	0
2	36447	7.61	0
2	37004	7.71	0
2	37561	7.81	0
2	38118	7.91	0
2	38683	8.01	0
2	39240	8.11	0
2	39797	8.21	0
2	40354	8.31	0
2	40911	8.41	0
2	41468	8.51	0
2	42025	8.61	0
2	42582	8.71	0
2	43139	8.81	0
2	43696	8.91	0
2	44261	9.01	0
2	44818	9.11	0
2	45375	9.21	0
2	45932	9.31	0
2	46489	9.41	0
2	47046	9.51	0
2	47603	9.61	0
2	48160	9.71	0
2	48717	9.81	0
2	49274	9.91	0
2	49839	10.01	0
2	50396	10.11	0
2	50953	10.21	0
2	51510	10.31	0
2	52067	10.41	0
2	52624	10.51	0
2	53181	10.61	0
2	53738	10.71	0
2	54295	10.81	0
2	54852	10.91	0
2	55417	11.01	0
2	55974	11.11	0
2	56531	11.21	0
2	57088	11.31	0
2	57645	11.41	0
2	58202	11.51	0
2	58759	11.61	0
2	59316	11.71	0
2	59873	11.81	0
2	60430	11.91	0
2	60995	12.01	0
2	61552	12.11	0
2	62109	12.21	0
2	62666	12.31	0
2	63223	12.41	0
2	63780	12.51	0
2	64337	12.61	0
2	64894	12.71	0
2	65451	12.81	0
2	66008	12.91	0
2	66573	13.01	0
2	67130	13.11	0
2	67687	13.21	0
2	68244	13.31	0
2	68801	13.41	0
2	69358	13.51	0
2	69915	13.61	0
2	70472	13.71	0
2	71029	13.81	0
2	71586	13.91	0
2	72151	14.01	0
2	72708	14.11	0
2	73265	14.21	0
2	73822	14.31	0
2	74379	14.41	0
2	74936	14.51	0
2	75493	14.61	0
2	76050	14.71	0
2	76607	14.81	0
2	77164	14.91	0
2	77729	15.01	0
2	78286	15.11	0
2	78843	15.21	0
2	79400	15.31	0
2	79957	15.41	0
2	80514	15.51	0
2	81071	15.61	0
2	81628	15.71	0
2	82185	15.81	0
2	82742	15.91	0
2	83307	16.01	0
2	83864	16.11	0
2	84421	16.21	0
2	84978	16.31	0
2	85535	16.41	0
2	86092	16.51	0
2	86649	16.61	0
2	87206	16.71	0
2	87763	16.81	0
2	88320	16.91	0
2	88885	17.01	0
2	89442	17.11	0
2	89999	17.21	0
2	90556	17.31	0
2	91113	17.41	0
2	91670	17.51	0
2	92227	17.61	0
2	92784	17.71	0
2	93341	17.81	0
2	93898	17.91	0
2	94463	18.01	0
2	95020	18.11	0
2	95577	18.21	0
2	96134	18.31	0
2	96691	18.41	0
2	97248	18.51	0
2	97805	18.61	0
2	98362	18.71	0
2	98919	18.81	0
2	99476	18.91	0
2	100041	19.01	0
2	100598	19.11	0
2	101155	19.21	0
2	101712	19.31	0
2	102269	19.41	0
2	102826	19.51	0
2	103383	19.61	0
2	103940	19.71	0
2	104497	19.81	0
2	105054	19.91	0
2	105619	20.01	0
2	106176	20.11	0
2	106733	20.21	0
2	107290	20.31	0
2	107847	20.41	0
2	108404	20.51	0
2	108961	20.61	0
2	109518	20.71	0
2	110075	20.81	0
2	110632	20.91	0
2	111197	21.01	0
2	111754	21.11	0
2	112311	21.21	0
2	112868	21.31	0
2	113425	21.41	0
2	113982	21.51	0
2	114539	21.61	0
2	115096	21.71	0
2	115653	21.81	0
2	116210	21.91	0
2	116775	22.01	0
2	117332	22.11	0
2	117889	22.21	0
2	118446	22.31	0
2	119003	22.41	0
2	119560	22.51	0
2	120117	22.61	0
2	120674	22.71	0
2	121231	22.81	0
2	121788	22.91	0
2	122353	23.01	0
2	122910	23.11	0
2	123467	23.21	0
2	124024	23.31	0
2	124581	23.41	0
2	125138	23.51	0
2	125695	23.61	0
2	126252	23.71	0
2	126809	23.81	0
2	127366	23.91	0
2	127931	24.01	0
2	128488	24.11	0
2	129045	24.21	0
2	129602	24.31	0
2	130159	24.41	0
2	130716	24.51	0
2	131273	24.61	0
2	131830	24.71	0
2	132387	24.81	0
2	132944	24.91	0
2	133509	25.01	0
2	134066	25.11	0
2	134623	25.21	0
2	135180	25.31	0
2	135737	25.41	0
2	136294	25.51	0
2	136851	25.61	0
2	137408	25.71	0
2	137965	25.81	0
2	138522	25.91	0
2	139087	26.01	0
2	139644	26.11	0
2	140201	26.21	0
2	140758	26.31	0
2	141315	26.41	0
2	141872	26.51	0
2	142429	26.61	0
2	142986	26.71	0
2	143543	26.81	0
2	144100	26.91	0
2	144665	27.01	0
2	145222	27.11	0
2	145779	27.21	0
2	146336	27.31	0
2	146893	27.41	0
2	147450	27.51	0
2	148007	27.61	0
2	148564	27.71	0
2	149121	27.81	0
2	149678	27.91	0
2	150243	28.01	0
2	150800	28.11	0
2	151357	28.21	0
2	151914	28.31	0
2	152471	28.41	0
2	153028	28.51	0
2	153585	28.61	0
2	154142	28.71	0
2	154699	28.81	0
2	155256	28.91	0
2	155821	29.01	0
2	156378	29.11	0
2	156935	29.21	0
2	157492	29.31	0
2	158049	29.41	0
2	158606	29.51	0
2	159163	29.61	0
2	159720	29.71	0
2	160277	29.81	0
2	160834	29.91	0
2	161399	30.01	0
2	161956	30.11	0
2	162513	30.21	0
2	163070	30.31	0
2	163627	30.41	0
2	164184	30.51	0
2	164741	30.61	0
2	165298	30.71	0
2	165855	30.81	0
2	166412	30.91	0
2	166977	31.01	0
2	167534	31.11	0
2	168091	31.21	0
2	168648	31.31	0
2	169205	31.41	0
2	169762	31.51	0
2	170319	31.61	0
2	170876	31.71	0
2	171433	31.81	0
2	171990	31.91	0
2	172555	32.01	0
2	173112	32.11	0
2	173669	32.21	0
2	174226	32.31	0
2	174783	32.41	0
2	175340	32.51	0
2	175897	32.61	0
2	176454	32.71	0
2	177011	32.81	0
2	177568	32.91	0
2	178133	33.01	0
2	178690	33.11	0
2	179247	33.21	0
2	179804	33.31	0
2	180361	33.41	0
2	180918	33.51	0
2	181475	33.61	0
2	182032	33.71	0
2	182589	33.81	0
2	183146	33.91	0
2	183711	34.01	0
2	184268	34.11	0
2	184825	34.21	0
2	185382	34.31	0
2	185939	34.41	0
2	186496	34.51	0
2	187053	34.61	0
2	187610	34.71	0
2	188167	34.81	0
10	5168	2	0
10	10736	3	0
10	16304	4	0
10	21873	5	0
10	27450	6	0
10	33028	7	0
10	38606	8	0
10	44184	9	0
10	49762	10	0
10	55340	11	0
10	60918	12	0
10	66496	13	0
10	72074	14	0
10	77652	15	0
10	83230	16	0
10	88808	17	0
10	94386	18	0
10	99964	19	0
10	105542	20	0
10	111120	21	0
10	116698	22	0
10	122276	23	0
10	127854	24	0
10	133432	25	0
10	139010	26	0
10	144588	27	0
10	150166	28	0
10	155744	29	0
10	161322	30	0
10	166900	31	0
10	172478	32	0
10	178056	33	0
10	183634	34	0
9	5168	2	0.023297
9	10736	3	0.02625
9	16304	4	0.02625
9	21873	5	0.02625
9	27450	6	0.02625
9	33028	7	0.02625
9	38606	8	0.02625
9	44184	9	0.02625
9	49762	10	0.02625
9	55340	11	0.02625
9	60918	12	0.02625
9	66496	13	0.02625
9	72074	14	0.02625
9	77652	15	0.02625
9	83230	16	0.02625
9	88808	17	0.02625
9	94386	18	0.02625
9	99964	19	0.02625
9	105542	20	0.02625
9	111120	21	0.02625
9	116698	22	0.02625
9	122276	23	0.02625
9	127854	24	0.02625
9	133432	25	0.02625
9	139010	26	0.02625
9	144588	27	0.02625
9	150166	28	0.02625
9	155744	29	0.02625
9	161322	30	0.02625
9	166900	31	0.02625
9	172478	32	0.02625
9	178056	33	0.02625
9	183634	34	0.02625
8	5168	2	0
8	10736	3	0
8	16304	4	0
8	21873	5	0
8	27450	6	0
8	33028	7	0
8	38606	8	0
8	44184	9	0
8	49762	10	0
8	55340	11	0
8	60918	12	0
8	66496	13	0
8	72074	14	0
8	77652	15	0
8	83230	16	0
8	88808	17	0
8	94386	18	0
8	99964	19	0
8	105542	20	0
8	111120	21	0
8	116698	22	0
8	122276	23	0
8	127854	24	0
8	133432	25	0
8	139010	26	0
8	144588	27	0
8	150166	28	0
8	155744	29	0
8	161322	30	0
8	166900	31	0
8	172478	32	0
8	178056	33	0
8	183634	34	0
51	234	1.11	0
51	790	1.21	6.2377865717167e-07
51	1346	1.31	1.2298615628481e-06
51	1902	1.41	1.1845089777296e-06
51	2458	1.51	1.1263821276941e-06
51	3014	1.61	1.0588786143728e-06
51	3570	1.71	9.8494175475139e-07
51	4126	1.81	9.0709134809686e-07
51	4682	1.91	8.2745622918878e-07
51	5246	2.01	7.4780768983373e-07
51	5802	2.11	6.6959299232394e-07
51	6358	2.21	5.939686322165e-07
51	6914	2.31	5.2183273666628e-07
51	7470	2.41	4.5385591562308e-07
51	8026	2.51	3.9051082097785e-07
51	8582	2.61	3.3209964428238e-07
51	9138	2.71	2.7877973849399e-07
51	9694	2.81	2.305872544639e-07
51	10250	2.91	1.874584633299e-07
51	10814	3.01	1.4924924201409e-07
51	11370	3.11	1.1575211047443e-07
51	11926	3.21	8.671166611407e-08
51	12482	3.31	6.1837937437303e-08
51	13038	3.41	4.0817855477826e-08
51	13594	3.51	2.3325083731152e-08
51	14150	3.61	9.0283789688783e-09
51	14706	3.71	-2.4014130417527e-09
51	15262	3.81	-1.1285848273701e-08
51	15818	3.91	-1.7934439000555e-08
51	16382	4.01	-2.2641231112175e-08
51	16938	4.11	-2.5682217454914e-08
51	17494	4.21	-2.7313556216768e-08
51	18050	4.31	-2.7770638695301e-08
51	18606	4.41	-2.7267499831396e-08
51	19162	4.51	-2.5996835830711e-08
51	19718	4.61	-2.4130379614462e-08
51	20274	4.71	-2.1819531639267e-08
51	20830	4.81	-1.9196316287662e-08
51	21386	4.91	-1.6374462319391e-08
51	21951	5.01	-1.3450543150384e-08
51	22508	5.11	-1.0505481355949e-08
51	23065	5.21	0.17297129253409
51	23622	5.31	0.51203824996724
51	24179	5.41	0.83256419941359
51	24736	5.51	1.1254700904639
51	25293	5.61	1.3832121352203
51	25850	5.71	1.5050474573928
51	26407	5.81	1.5082114714108
51	26964	5.91	1.5092105829855
51	27529	6.01	1.5100289667727
51	28086	6.11	1.5106927149285
51	28643	6.21	1.5112242280826
51	29200	6.31	1.5116427096138
51	29757	6.41	1.5119646005243
51	30314	6.51	1.5122039605916
51	30871	6.61	1.4466446830636
51	31428	6.71	1.2488711492944
51	31985	6.81	0.96771042301594
51	32542	6.91	0.65634114885675
51	33107	7.01	0.32205822977946
51	33664	7.11	-0.027688024964589
51	34221	7.21	-0.38541171508927
51	34778	7.31	-0.74370751853044
51	35335	7.41	-1.0953621811643
51	35892	7.51	-1.3822411314063
51	36449	7.61	-1.4965277848739
51	37006	7.71	-1.4978320779446
51	37563	7.81	-1.4989669895619
51	38120	7.91	-1.4999543316852
51	38685	8.01	-1.5008132076023
51	39242	8.11	-1.5015602873893
51	39799	8.21	-1.5022100714825
51	40356	8.31	-1.5027751380395
51	40913	8.41	-1.5032663716107
51	41470	8.51	-1.5036931719878
51	42027	8.61	-1.5040636430515
51	42584	8.71	-1.5043847621048
51	43141	8.81	-1.5046625306158
51	43698	8.91	-1.5049021075722
51	44263	9.01	-1.505107926799
51	44820	9.11	-1.5052837996578
51	45377	9.21	-1.5054330045475
51	45934	9.31	-1.5055583645809
51	46491	9.41	-1.5056623147473
51	47048	9.51	-1.4867403221209
51	47605	9.61	-1.2607833425876
51	48162	9.71	-0.83870961348212
51	48719	9.81	-0.40570680838772
51	49276	9.91	0.02779806250437
51	49841	10.01	0.45212746421138
51	50398	10.11	0.85842038251056
51	50955	10.21	1.2386898763631
51	51512	10.31	1.4624416004196
51	52069	10.41	1.5041477284695
51	52626	10.51	1.5053077323111
51	53183	10.61	1.5062904518433
51	53740	10.71	1.5071196060907
51	54297	10.81	1.5078158797748
51	54854	10.91	1.5083972527565
51	55419	11.01	1.5088793088372
51	55976	11.11	1.5092755209779
51	56533	11.21	1.5095975116307
51	57090	11.31	1.5098552880385
51	57647	11.41	1.5100574531597
51	58204	11.51	1.5102113934086
51	58761	11.61	1.510323444731
51	59318	11.71	1.5103990387147
51	59875	11.81	1.5104428305105
51	60432	11.91	1.4580611283551
51	60997	12.01	1.2154807806783
51	61554	12.11	0.82470802539217
51	62111	12.21	0.41809609365011
51	62668	12.31	0.0053484551726223
51	63225	12.41	-0.40433832727698
51	63782	12.51	-0.80235910483164
51	64339	12.61	-1.1807764864484
51	64896	12.71	-1.4314588748704
51	65453	12.81	-1.4994666021844
51	66010	12.91	-1.5007300702997
51	66575	13.01	-1.5018181134363
51	67132	13.11	-1.5027537966347
51	67689	13.21	-1.503557271667
51	68246	13.31	-1.5042460841144
51	68803	13.41	-1.5048354638997
51	69360	13.51	-1.5053385955989
51	69917	13.61	-1.505766866618
51	70474	13.71	-1.5061300925926
51	71031	13.81	-1.5064367202578
51	71588	13.91	-1.5066940086423
51	72153	14.01	-1.506908189827
51	72710	14.11	-1.5070846107458
51	73267	14.21	-1.5072278576126
51	73824	14.31	-1.5073418645974
51	74381	14.41	-1.5074300083401
51	74938	14.51	-1.3429032258966
51	75495	14.61	-0.9752038241317
51	76052	14.71	-0.56254939539362
51	76609	14.81	-0.14222405677611
51	77166	14.91	0.27616240167677
51	77731	15.01	0.68364581706676
51	78288	15.11	1.0719806860005
51	78845	15.21	1.381000815941
51	79402	15.31	1.5023065742112
51	79959	15.41	1.5035849929637
51	80516	15.51	1.5046731144671
51	81073	15.61	1.5055963325105
51	81630	15.71	1.5063768151245
51	82187	15.81	1.5070338490006
[...]
35	99926	18.997806043752	0.09999848113
35	100491	19.097804524747	0.099998480995
35	101048	19.197803005602	0.099998480855
35	101605	19.297801486314	0.099998480712
35	102162	19.397799966881	0.099998480567
35	102719	19.497811447304	0.100011480423
35	103276	19.597809927583	0.099998480279
35	103833	19.697808407724	0.099998480141
35	104390	19.797806887742	0.099998480018
35	104947	19.897805367654	0.099998479912
35	105504	19.997803847482	0.099998479828
35	106069	20.097802327251	0.099998479769
35	106626	20.19780080699	0.099998479739
35	107183	20.297799286723	0.099998479733
35	107740	20.397810766476	0.100011479753
35	108297	20.497809246271	0.099998479795
35	108854	20.597807726124	0.099998479853
35	109411	20.697806206047	0.099998479923
35	109968	20.797804686057	0.09999848001
35	110525	20.89780316616	0.099998480103
35	111082	20.997801646365	0.099998480205
35	111647	21.09780012668	0.099998480315
35	112204	21.197798607111	0.099998480431
35	112761	21.297810087661	0.10001148055
35	113318	21.397808568335	0.099998480674
35	113875	21.497807049138	0.099998480803
35	114432	21.597805530072	0.099998480934
35	114989	21.697804011142	0.09999848107
35	115546	21.797802492347	0.099998481205
35	116103	21.897800973694	0.099998481347
35	116660	21.99779945518	0.099998481486
35	117225	22.097810936805	0.100011481625
35	117782	22.19780941856	0.099998481755
35	118339	22.297807900434	0.099998481874
35	118896	22.397806382408	0.099998481974
35	119453	22.497804864461	0.099998482053
35	120010	22.597803346567	0.099998482106
35	120567	22.697801828698	0.099998482131
35	121124	22.797800310829	0.099998482131
35	121681	22.897798792935	0.099998482106
35	122238	22.997810274992	0.100011482057
35	122803	23.097808756985	0.099998481993
35	123360	23.197807238901	0.099998481916
35	123917	23.297805720727	0.099998481826
35	124474	23.397804202453	0.099998481726
35	125031	23.49780268407	0.099998481617
35	125588	23.597801165571	0.099998481501
35	126145	23.69779964695	0.099998481379
35	126702	23.797811128205	0.100011481255
35	127259	23.89780960933	0.099998481125
35	127816	23.997808090319	0.099998480989
35	128381	24.09780657117	0.099998480851
35	128938	24.197805051882	0.099998480712
35	129495	24.29780353245	0.099998480568
35	130052	24.397802012874	0.099998480424
35	130609	24.49780049315	0.099998480276
35	131166	24.597798973281	0.099998480131
35	131723	24.697810453277	0.100011479996
35	132280	24.797808933148	0.099998479871
35	132837	24.897807412913	0.099998479765
35	133394	24.997805892594	0.099998479681
35	133959	25.097804372215	0.099998479621
35	134516	25.197802851802	0.099998479587
35	135073	25.297801331387	0.099998479585
35	135630	25.39779981099	0.099998479603
35	136187	25.497811290634	0.100011479644
35	136744	25.597809770336	0.099998479702
35	137301	25.697808250111	0.099998479775
35	137858	25.79780672997	0.099998479859
35	138415	25.897805209923	0.099998479953
35	138972	25.997803689979	0.099998480056
35	139537	26.097802170144	0.099998480165
35	140094	26.197800650423	0.099998480279
35	140651	26.297799130823	0.0999984804
35	141208	26.397810611346	0.100011480523
35	141765	26.497809091997	0.099998480651
35	142322	26.59780757278	0.099998480783
35	142879	26.697806053697	0.099998480917
35	143436	26.797804534753	0.099998481056
35	143993	26.897803015948	0.099998481195
35	144550	26.997801497284	0.099998481336
35	145115	27.097799978757	0.099998481473
35	145672	27.197811460362	0.100011481605
35	146229	27.297809942085	0.099998481723
35	146786	27.397808423908	0.099998481823
35	147343	27.49780690581	0.099998481902
35	147900	27.597805387764	0.099998481954
35	148457	27.697803869745	0.099998481981
35	149014	27.797802351725	0.09999848198
35	149571	27.897800833681	0.099998481956
35	150128	27.997799315589	0.099998481908
35	150693	28.097810797434	0.100011481845
35	151250	28.197809279199	0.099998481765
35	151807	28.297807760875	0.099998481676
35	152364	28.39780624245	0.099998481575
35	152921	28.497804723917	0.099998481467
35	153478	28.597803205271	0.099998481354
35	154035	28.697801686505	0.099998481234
35	154592	28.79780016761	0.099998481105
35	155149	28.897798648586	0.099998480976
35	155706	28.997810129427	0.100011480841
35	156271	29.097808610132	0.099998480705
35	156828	29.197807090697	0.099998480565
35	157385	29.297805571118	0.099998480421
35	157942	29.397804051395	0.099998480277
35	158499	29.497802531525	0.09999848013
35	159056	29.597801011515	0.09999847999
35	159613	29.697799491364	0.099998479849
35	160170	29.797810971092	0.100011479728
35	160727	29.897809450713	0.099998479621
35	161284	29.997807930249	0.099998479536
35	161849	30.097806409727	0.099998479478
35	162406	30.197804889174	0.099998479447
35	162963	30.297803368616	0.099998479442
35	163520	30.397801848078	0.099998479462
35	164077	30.497800327582	0.099998479504
35	164634	30.597798807144	0.099998479562
35	165191	30.697810286779	0.100011479635
35	165748	30.797808766497	0.099998479718
35	166305	30.897807246311	0.099998479814
35	166862	30.997805726226	0.099998479915
35	167427	31.097804206251	0.099998480025
35	167984	31.197802686393	0.099998480142
35	168541	31.297801166655	0.099998480262
35	169098	31.397799647041	0.099998480386
35	169655	31.497811127557	0.100011480516
35	170212	31.597809608205	0.099998480648
35	170769	31.697808088986	0.099998480781
35	171326	31.797806569906	0.09999848092
35	171883	31.897805050968	0.099998481062
35	172440	31.997803532172	0.099998481204
35	173005	32.09780201352	0.099998481348
35	173562	32.197800495	0.09999848148
35	174119	32.297798976595	0.099998481595
35	174676	32.397810458266	0.100011481671
35	175233	32.497808939964	0.099998481698
35	175790	32.597807421622	0.099998481658
35	176347	32.697805903149	0.099998481527
35	176904	32.797804384439	0.09999848129
35	177461	32.897802865374	0.099998480935
35	178018	32.997801345819	0.099998480445
35	178583	33.097799825634	0.099998479815
35	179140	33.197811304671	0.100011479037
35	179697	33.297809782775	0.099998478104
35	180254	33.397808259784	0.099998477009
35	180811	33.497806735538	0.099998475754
35	181368	33.59780520987	0.099998474332
35	181925	33.697803682612	0.099998472742
35	182482	33.797802153595	0.099998470983
35	183039	33.897800622645	0.09999846905
35	183596	33.997799089597	0.099998466952
35	184161	34.097810554278	0.100011464681
35	184718	34.197809016515	0.099998462237
35	185275	34.297807476135	0.09999845962
35	185832	34.39780593297	0.099998456835
35	186389	34.497804386849	0.099998453879
35	186946	34.597802837608	0.099998450759
35	187503	34.697801285089	0.099998447481
35	188060	34.797799729152	0.099998444063
35	188617	34.897811169665	0.100011440513
36	1238	1.297801900626	0.099998480334
36	1794	1.39780038096	0.099998480334
36	2350	1.497798861294	0.099998480334
36	2906	1.597810341628	0.100011480334
36	3462	1.697808821962	0.099998480334
36	4018	1.797807302296	0.099998480334
36	4574	1.89780578263	0.099998480334
36	5130	1.997804262964	0.099998480334
36	5694	2.097802743298	0.099998480334
36	6250	2.197801223632	0.099998480334
36	6806	2.297799703966	0.099998480334
36	7362	2.3978111843	0.100011480334
36	7918	2.497809664634	0.099998480334
36	8474	2.597808144968	0.099998480334
36	9030	2.697806625302	0.099998480334
36	9586	2.797805105636	0.099998480334
36	10142	2.89780358597	0.099998480334
36	10698	2.997802066304	0.099998480334
36	11262	3.097800546638	0.099998480334
36	11818	3.197799026972	0.099998480334
36	12374	3.297810507306	0.100011480334
36	12930	3.39780898764	0.099998480334
36	13486	3.497807467974	0.099998480334
36	14042	3.597805948308	0.099998480334
36	14598	3.697804428642	0.099998480334
36	15154	3.797802908976	0.099998480334
36	15710	3.89780138931	0.099998480334
36	16266	3.997799869644	0.099998480334
36	16830	4.097811349978	0.100011480334
36	17386	4.197809830312	0.099998480334
36	17942	4.297808310646	0.099998480334
36	18498	4.39780679098	0.099998480334
36	19054	4.497805271314	0.099998480334
36	19610	4.597803751648	0.099998480334
36	20166	4.697802231982	0.099998480334
36	20722	4.797800712316	0.099998480334
36	21278	4.89779919265	0.099998480334
36	21834	4.997810672984	0.100011480334
36	22399	5.097809153318	0.099998480334
36	22956	5.197807633653	0.099998480335
36	23513	5.297806113993	0.09999848034
36	24070	5.397804594348	0.099998480355
36	24627	5.497803074731	0.099998480383
36	25184	5.597801555159	0.099998480428
36	25741	5.69780003565	0.099998480491
36	26298	5.797811516221	0.100011480571
36	26855	5.897809996888	0.099998480667
36	27412	5.997808477661	0.099998480773
36	27977	6.097806958551	0.09999848089
36	28534	6.197805439567	0.099998481016
36	29091	6.297803920714	0.099998481147
36	29648	6.397802402	0.099998481286
36	30205	6.497800883427	0.099998481427
36	30762	6.597799365001	0.099998481574
36	31319	6.697810846725	0.100011481724
36	31876	6.797809328599	0.099998481874
36	32433	6.897807810613	0.099998482014
36	32990	6.997806292761	0.099998482148
36	33555	7.09780477503	0.099998482269
36	34112	7.197803257402	0.099998482372
36	34669	7.297801739855	0.099998482453
36	35226	7.397800222368	0.099998482513
36	35783	7.497798704916	0.099998482548
36	36340	7.597810187473	0.100011482557
36	36897	7.697808670014	0.099998482541
36	37454	7.79780715252	0.099998482506
36	38011	7.897805634975	0.099998482455
36	38568	7.997804117365	0.09999848239
36	39133	8.097802599679	0.099998482314
36	39690	8.197801081904	0.099998482225
36	40247	8.297799564038	0.099998482134
36	40804	8.39781104607	0.100011482032
36	41361	8.497809527995	0.099998481925
36	41918	8.597808009807	0.099998481812
36	42475	8.697806491504	0.099998481697
36	43032	8.797804973081	0.099998481577
36	43589	8.897803454533	0.099998481452
36	44146	8.997801935858	0.099998481325
36	44711	9.097800417054	0.099998481196
36	45268	9.197798898116	0.099998481062
36	45825	9.297810379046	0.10001148093
36	46382	9.397808859838	0.099998480792
36	46939	9.497807340491	0.099998480653
36	47496	9.597805821006	0.099998480515
36	48053	9.697804301382	0.099998480376
36	48610	9.797802781633	0.099998480251
36	49167	9.897801261769	0.099998480136
36	49724	9.997799741812	0.099998480043
36	50289	10.097811221785	0.100011479973
36	50846	10.197809701713	0.099998479928
36	51403	10.297808181625	0.099998479912
36	51960	10.397806661547	0.099998479922
36	52517	10.497805141504	0.099998479957
36	53074	10.597803621514	0.09999848001
36	53631	10.697802101592	0.099998480078
36	54188	10.797800581754	0.099998480162
36	54745	10.897799062008	0.099998480254
36	55302	10.997810542365	0.100011480357
36	55867	11.097809022832	0.099998480467
36	56424	11.197807503418	0.099998480586
36	56981	11.297805984124	0.099998480706
36	57538	11.397804464958	0.099998480834
36	58095	11.497802945922	0.099998480964
36	58652	11.597801427022	0.0999984811
36	59209	11.697799908259	0.099998481237
36	59766	11.797811389636	0.100011481377
36	60323	11.897809871156	0.09999848152
36	60880	11.99780835282	0.099998481664
36	61445	12.097806834624	0.099998481804
36	62002	12.197805316559	0.099998481935
36	62559	12.297803798613	0.099998482054
36	63116	12.397802280767	0.099998482154
36	63673	12.497800762997	0.09999848223
36	64230	12.597799245278	0.099998482281
36	64787	12.697810727584	0.100011482306
36	65344	12.797809209888	0.099998482304
36	65901	12.897807692165	0.099998482277
36	66458	12.997806174396	0.099998482231
36	67023	13.097804656565	0.099998482169
36	67580	13.197803138657	0.099998482092
36	68137	13.297801620663	0.099998482006
36	68694	13.397800102571	0.099998481908
36	69251	13.497798584375	0.099998481804
36	69808	13.597810066067	0.100011481692
36	70365	13.697808547642	0.099998481575
36	70922	13.797807029094	0.099998481452
36	71479	13.897805510421	0.099998481327
36	72036	13.997803991617	0.099998481196
36	72601	14.09780247268	0.099998481063
36	73158	14.197800953608	0.099998480928
36	73715	14.297799434395	0.099998480787
36	74272	14.397810915041	0.100011480646
36	74829	14.497809395544	0.099998480503
36	75386	14.597807875907	0.099998480363
36	75943	14.697806356136	0.099998480229
36	76500	14.797804836242	0.099998480106
36	77057	14.897803316245	0.099998480003
36	77614	14.997801796164	0.099998479919
36	78179	15.097800276024	0.09999847986
36	78736	15.197798755855	0.099998479831
36	79293	15.29781023568	0.100011479825
36	79850	15.397808715528	0.099998479848
36	80407	15.497807195416	0.099998479888
36	80964	15.597805675364	0.099998479948
36	81521	15.697804155387	0.099998480023
36	82078	15.797802635496	0.099998480109
36	82635	15.897801115701	0.099998480205
36	83192	15.997799596009	0.099998480308
36	83757	16.097811076429	0.10001148042
36	84314	16.197809556966	0.099998480537
36	84871	16.297808037626	0.09999848066
36	85428	16.397806518411	0.099998480785
36	85985	16.497804999327	0.099998480916
36	86542	16.597803480378	0.099998481051
36	87099	16.697801961564	0.099998481186
36	87656	16.797800442889	0.099998481325
36	88213	16.897798924356	0.099998481467
36	88770	16.997810405965	0.100011481609
36	89335	17.097808887715	0.09999848175
36	89892	17.197807369595	0.09999848188
36	90449	17.297805851596	0.099998482001
36	91006	17.397804333699	0.099998482103
36	91563	17.497802815879	0.09999848218
36	92120	17.597801298115	0.099998482236
36	92677	17.697799780376	0.099998482261
36	93234	17.797811262636	0.10001148226
36	93791	17.897809744871	0.099998482235
36	94348	17.99780822706	0.099998482189
36	94913	18.097806709186	0.099998482126
36	95470	18.197805191235	0.099998482049
36	96027	18.297803673194	0.099998481959
36	96584	18.397802155054	0.09999848186
36	97141	18.497800636806	0.099998481752
36	97698	18.597799118445	0.099998481639
36	98255	18.697810599963	0.100011481518
36	98812	18.797809081358	0.099998481395
36	99369	18.897807562622	0.099998481264
36	99926	18.997806043752	0.09999848113
36	100491	19.097804524747	0.099998480995
36	101048	19.197803005602	0.099998480855
36	101605	19.297801486314	0.099998480712
36	102162	19.397799966881	0.099998480567
36	102719	19.497811447304	0.100011480423
36	103276	19.597809927583	0.099998480279
36	103833	19.697808407724	0.099998480141
36	104390	19.797806887742	0.099998480018
36	104947	19.897805367654	0.099998479912
36	105504	19.997803847482	0.099998479828
36	106069	20.097802327251	0.099998479769
36	106626	20.19780080699	0.099998479739
36	107183	20.297799286723	0.099998479733
36	107740	20.397810766476	0.100011479753
36	108297	20.497809246271	0.099998479795
36	108854	20.597807726124	0.099998479853
36	109411	20.697806206047	0.099998479923
36	109968	20.797804686057	0.09999848001
36	110525	20.89780316616	0.099998480103
36	111082	20.997801646365	0.099998480205
36	111647	21.09780012668	0.099998480315
36	112204	21.197798607111	0.099998480431
36	112761	21.297810087661	0.10001148055
36	113318	21.397808568335	0.099998480674
36	113875	21.497807049138	0.099998480803
36	114432	21.597805530072	0.099998480934
36	114989	21.697804011142	0.09999848107
36	115546	21.797802492347	0.099998481205
36	116103	21.897800973694	0.099998481347
36	116660	21.99779945518	0.099998481486
36	117225	22.097810936805	0.100011481625
36	117782	22.19780941856	0.099998481755
36	118339	22.297807900434	0.099998481874
36	118896	22.397806382408	0.099998481974
36	119453	22.497804864461	0.099998482053
36	120010	22.597803346567	0.099998482106
36	120567	22.697801828698	0.099998482131
36	121124	22.797800310829	0.099998482131
36	121681	22.897798792935	0.099998482106
36	122238	22.997810274992	0.100011482057
36	122803	23.097808756985	0.099998481993
36	123360	23.197807238901	0.099998481916
36	123917	23.297805720727	0.099998481826
36	124474	23.397804202453	0.099998481726
36	125031	23.49780268407	0.099998481617
36	125588	23.597801165571	0.099998481501
36	126145	23.69779964695	0.099998481379
36	126702	23.797811128205	0.100011481255
36	127259	23.89780960933	0.099998481125
36	127816	23.997808090319	0.099998480989
36	128381	24.09780657117	0.099998480851
36	128938	24.197805051882	0.099998480712
36	129495	24.29780353245	0.099998480568
36	130052	24.397802012874	0.099998480424
36	130609	24.49780049315	0.099998480276
36	131166	24.597798973281	0.099998480131
36	131723	24.697810453277	0.100011479996
36	132280	24.797808933148	0.099998479871
36	132837	24.897807412913	0.099998479765
36	133394	24.997805892594	0.099998479681
36	133959	25.097804372215	0.099998479621
36	134516	25.197802851802	0.099998479587
36	135073	25.297801331387	0.099998479585
36	135630	25.39779981099	0.099998479603
36	136187	25.497811290634	0.100011479644
36	136744	25.597809770336	0.099998479702
36	137301	25.697808250111	0.099998479775
36	137858	25.79780672997	0.099998479859
36	138415	25.897805209923	0.099998479953
36	138972	25.997803689979	0.099998480056
36	139537	26.097802170144	0.099998480165
36	140094	26.197800650423	0.099998480279
36	140651	26.297799130823	0.0999984804
36	141208	26.397810611346	0.100011480523
36	141765	26.497809091997	0.099998480651
36	142322	26.59780757278	0.099998480783
36	142879	26.697806053697	0.099998480917
36	143436	26.797804534753	0.099998481056
36	143993	26.897803015948	0.099998481195
36	144550	26.997801497284	0.099998481336
36	145115	27.097799978757	0.099998481473
36	145672	27.197811460362	0.100011481605
36	146229	27.297809942085	0.099998481723
36	146786	27.397808423908	0.099998481823
36	147343	27.49780690581	0.099998481902
36	147900	27.597805387764	0.099998481954
36	148457	27.697803869745	0.099998481981
36	149014	27.797802351725	0.09999848198
36	149571	27.897800833681	0.099998481956
36	150128	27.997799315589	0.099998481908
36	150693	28.097810797434	0.100011481845
36	151250	28.197809279199	0.099998481765
36	151807	28.297807760875	0.099998481676
36	152364	28.39780624245	0.099998481575
36	152921	28.497804723917	0.099998481467
36	153478	28.597803205271	0.099998481354
36	154035	28.697801686505	0.099998481234
36	154592	28.79780016761	0.099998481105
36	155149	28.897798648586	0.099998480976
36	155706	28.997810129427	0.100011480841
36	156271	29.097808610132	0.099998480705
36	156828	29.197807090697	0.099998480565
36	157385	29.297805571118	0.099998480421
36	157942	29.397804051395	0.099998480277
36	158499	29.497802531525	0.09999848013
36	159056	29.597801011515	0.09999847999
36	159613	29.697799491364	0.099998479849
36	160170	29.797810971092	0.100011479728
36	160727	29.897809450713	0.099998479621
36	161284	29.997807930249	0.099998479536
36	161849	30.097806409727	0.099998479478
36	162406	30.197804889174	0.099998479447
36	162963	30.297803368616	0.099998479442
36	163520	30.397801848078	0.099998479462
36	164077	30.497800327582	0.099998479504
36	164634	30.597798807144	0.099998479562
36	165191	30.697810286779	0.100011479635
36	165748	30.797808766497	0.099998479718
36	166305	30.897807246311	0.099998479814
36	166862	30.997805726226	0.099998479915
36	167427	31.097804206251	0.099998480025
36	167984	31.197802686393	0.099998480142
36	168541	31.297801166655	0.099998480262
36	169098	31.397799647041	0.099998480386
36	169655	31.497811127557	0.100011480516
36	170212	31.597809608205	0.099998480648
36	170769	31.697808088986	0.099998480781
36	171326	31.797806569906	0.09999848092
36	171883	31.897805050968	0.099998481062
36	172440	31.997803532172	0.099998481204
36	173005	32.09780201352	0.099998481348
36	173562	32.197800495	0.09999848148
36	174119	32.297798976595	0.099998481595
36	174676	32.397810458266	0.100011481671
36	175233	32.497808939964	0.099998481698
36	175790	32.597807421622	0.099998481658
36	176347	32.697805903149	0.099998481527
36	176904	32.797804384439	0.09999848129
36	177461	32.897802865374	0.099998480935
36	178018	32.997801345819	0.099998480445
36	178583	33.097799825634	0.099998479815
36	179140	33.197811304671	0.100011479037
36	179697	33.297809782775	0.099998478104
36	180254	33.397808259784	0.099998477009
36	180811	33.497806735538	0.099998475754
36	181368	33.59780520987	0.099998474332
36	181925	33.697803682612	0.099998472742
36	182482	33.797802153595	0.099998470983
36	183039	33.897800622645	0.09999846905
36	183596	33.997799089597	0.099998466952
36	184161	34.097810554278	0.100011464681
36	184718	34.197809016515	0.099998462237
36	185275	34.297807476135	0.09999845962
36	185832	34.39780593297	0.099998456835
36	186389	34.497804386849	0.099998453879
36	186946	34.597802837608	0.099998450759
36	187503	34.697801285089	0.099998447481
36	188060	34.797799729152	0.099998444063
36	188617	34.897811169665	0.100011440513
