file 1685404 1501603915                                         
version 2
run SinusoidalJammingDetail-567-20170801-18:11:24-43211
attr CACCSpacing 11
attr attackAcc -30
attr attackPos 7
attr attackSpeed 150
attr attackStart 32.5
attr attacker 1
attr beaconInterval 0.1
attr configname SinusoidalJammingDetail
attr controller 1
attr datetime 20170801-18:11:24
attr experiment SinusoidalJammingDetail
attr fakeAcc "(1 == 4)"
attr fakePos "(1 == 2)"
attr fakeSpeed "(1 == 3)"
attr inifile omnetpp_567.ini
attr iterationvars "$leaderSpeed=120, $controller=1, $CACCSpacing=11, $sController=\"CACC\", $attacker=1, $attackStart=32.5, $attackSpeed=150, $attackPos=7, $attackAcc=-30, $0=11, $1=0, $nCars=8, $platoonSize=8, $nLanes=1, $beaconInterval=0.1, $priority=2, $packetSize=200, $ploegH=0.5, $leaderHeadway=1.2, $fakeSpeed=(1 == 3), $fakeAcc=(1 == 4), $fakePos=(1 == 2)"
attr iterationvarsf leaderSpeed=120,controller=1,CACCSpacing=11,sController=CACC,attacker=1,attackStart=32.5,attackSpeed=150,attackPos=7,attackAcc=-30,11,0,nCars=8,platoonSize=8,nLanes=1,beaconInterval=0.1,priority=2,packetSize=200,ploegH=0.5,leaderHeadway=1.2,fakeSpeed=(1_==_3),fakeAcc=(1_==_4),fakePos=(1_==_2)-
attr leaderHeadway 1.2
attr leaderSpeed 120
attr measurement "$leaderSpeed=120, $controller=1, $CACCSpacing=11, $sController=\"CACC\", $attacker=1, $attackStart=32.5, $attackSpeed=150, $attackPos=7, $attackAcc=-30, $0=11, $1=0, $nCars=8, $platoonSize=8, $nLanes=1, $beaconInterval=0.1, $priority=2, $packetSize=200, $ploegH=0.5, $leaderHeadway=1.2, $fakeSpeed=(1 == 3), $fakeAcc=(1 == 4), $fakePos=(1 == 2)"
attr nCars 8
attr nLanes 1
attr network scenario
attr packetSize 200
attr platoonSize 8
attr ploegH 0.5
attr priority 2
attr processid 43211
attr repetition 2
attr replication #2
attr resultdir results
attr runnumber 567
attr sController "\"CACC\""
attr seedset 2
param **.coreDebug false
param **.debug false
param **.headway 0.1s
param **.numberOfCars 8
param **.numberOfCarsPerPlatoon 8
param **.numberOfLanes 1
param **.numericController 1
param **.traffic.nCars 8
param **.traffic.nLanes 1
param **.traffic.platoonInsertDistance 11m
param **.traffic.platoonInsertHeadway 0s
param **.traffic.platoonInsertSpeed 120kmph
param **.traffic.platoonInsertTime "1 s"
param **.traffic.platoonLeaderHeadway 1.2s
param **.traffic.platoonSize 8
param **.traffic.platooningVType "\"vtypeauto\""
param **.traffic_type "\"PlatoonsTrafficManager\""
param *.**.nic.mac1609_4.bitrate 6Mbps
param *.**.nic.mac1609_4.txPower 100mW
param *.**.nic.mac1609_4.useServiceChannel false
param *.**.nic.phy80211p.analogueModels "xmldoc(\"config.xml\")"
param *.**.nic.phy80211p.decider "xmldoc(\"config.xml\")"
param *.**.nic.phy80211p.maxTXPower 100mW
param *.**.nic.phy80211p.sensitivity -94dBm
param *.**.nic.phy80211p.thermalNoise -95dBm
param *.**.nic.phy80211p.usePropagationDelay true
param *.**.nic.phy80211p.useThermalNoise true
param *.annotations.draw false
param *.connectionManager.alpha 2.0
param *.connectionManager.carrierFrequency "5.890e9 Hz"
param *.connectionManager.pMax 100mW
param *.connectionManager.sat -94dBm
param *.connectionManager.sendDirect true
param *.manager.autoShutdown true
param *.manager.commandLine "\"sumo --remote-port $port --seed $seed --configuration-file $configFile\""
param *.manager.configFile "\"./sumocfg/freeway.sumo.cfg\""
param *.manager.host "\"localhost\""
param *.manager.margin 25
param *.manager.moduleDisplayString "\"\""
param *.manager.moduleName "\"node\""
param *.manager.moduleType "\"Car\""
param *.manager.updateInterval 0.01s
param *.node[*].appl.attackStart 32.5s
param *.node[*].appl.attackerType 1
param *.node[*].appl.simulationDuration "60 s"
param *.node[*].appl_type "\"SimplePlatooningApp\""
param *.node[*].helper.nCars 8
param *.node[*].helper.nLanes 1
param *.node[*].helper.platoonSize 8
param *.node[*].helper_type "\"PositionHelper\""
param *.node[*].mobility.x 0
param *.node[*].mobility.y 0
param *.node[*].mobility.z 1.895
param *.node[*].prot.attackStart 32.5s
param *.node[*].prot.attackerType 1
param *.node[*].prot.attackingNode 3
param *.node[*].prot.beaconingInterval 0.1s
param *.node[*].prot.fakeAcc "(1 == 4)"
param *.node[*].prot.fakePos "(1 == 2)"
param *.node[*].prot.fakeSpeed "(1 == 3)"
param *.node[*].prot.maliciousAcc "-30 mpss"
param *.node[*].prot.maliciousSpeed 150kmph
param *.node[*].prot.packetSize 200
param *.node[*].prot.priority 2
param *.node[*].prot.shiftX "7 m"
param *.node[*].prot.useControllerAcceleration true
param *.node[*].protocol_type "\"SimplePlatooningBeaconing\""
param *.node[*].scenario.accHeadway 0.1s
param *.node[*].scenario.caccC1 0.5
param *.node[*].scenario.caccOmegaN "0.2 Hz"
param *.node[*].scenario.caccSpacing 11m
param *.node[*].scenario.caccXi 1
param *.node[*].scenario.controller "\"CACC\""
param *.node[*].scenario.engineTau "0.5 s"
param *.node[*].scenario.leaderHeadway 1.2s
param *.node[*].scenario.leaderOscillationFrequency "0.2 Hz"
param *.node[*].scenario.leaderSpeed 120kmph
param *.node[*].scenario.oscillationAmplitude "10 kmph"
param *.node[*].scenario.ploegH 0.5s
param *.node[*].scenario.ploegKd 0.7
param *.node[*].scenario.ploegKp 0.2
param *.node[*].scenario.startOscillating "5 s"
param *.node[*].scenario.useRealisticEngine false
param *.node[*].scenario_type "\"SinusoidalScenario\""
param *.node[*].unicast.packetLossRate 0
param *.obstacles.debug false
param *.playgroundSizeX 65000m
param *.playgroundSizeY 25000m
param *.playgroundSizeZ 50m
param *.world.use2D false
param *.world.useTorus false

vector 0  scenario.node[0].appl  distance  ETV
vector 1  scenario.node[0].appl  relativeSpeed  ETV
vector 2  scenario.node[0].appl  nodeId  ETV
vector 6  scenario.node[0].appl  acceleration  ETV
vector 7  scenario.node[0].appl  controllerAcceleration  ETV
vector 3  scenario.node[0].appl  speed  ETV
vector 4  scenario.node[0].appl  posx  ETV
vector 5  scenario.node[0].appl  posy  ETV
vector 22  scenario.node[1].appl  distance  ETV
vector 23  scenario.node[1].appl  relativeSpeed  ETV
vector 24  scenario.node[1].appl  nodeId  ETV
vector 28  scenario.node[1].appl  acceleration  ETV
vector 29  scenario.node[1].appl  controllerAcceleration  ETV
vector 25  scenario.node[1].appl  speed  ETV
vector 26  scenario.node[1].appl  posx  ETV
vector 27  scenario.node[1].appl  posy  ETV
vector 44  scenario.node[2].appl  distance  ETV
vector 45  scenario.node[2].appl  relativeSpeed  ETV
vector 46  scenario.node[2].appl  nodeId  ETV
vector 50  scenario.node[2].appl  acceleration  ETV
vector 51  scenario.node[2].appl  controllerAcceleration  ETV
vector 47  scenario.node[2].appl  speed  ETV
vector 48  scenario.node[2].appl  posx  ETV
vector 49  scenario.node[2].appl  posy  ETV
vector 66  scenario.node[3].appl  distance  ETV
vector 67  scenario.node[3].appl  relativeSpeed  ETV
vector 68  scenario.node[3].appl  nodeId  ETV
vector 72  scenario.node[3].appl  acceleration  ETV
vector 73  scenario.node[3].appl  controllerAcceleration  ETV
vector 69  scenario.node[3].appl  speed  ETV
vector 70  scenario.node[3].appl  posx  ETV
vector 71  scenario.node[3].appl  posy  ETV
vector 88  scenario.node[4].appl  distance  ETV
vector 89  scenario.node[4].appl  relativeSpeed  ETV
vector 90  scenario.node[4].appl  nodeId  ETV
vector 94  scenario.node[4].appl  acceleration  ETV
vector 95  scenario.node[4].appl  controllerAcceleration  ETV
vector 91  scenario.node[4].appl  speed  ETV
vector 92  scenario.node[4].appl  posx  ETV
vector 93  scenario.node[4].appl  posy  ETV
vector 110  scenario.node[5].appl  distance  ETV
vector 111  scenario.node[5].appl  relativeSpeed  ETV
vector 112  scenario.node[5].appl  nodeId  ETV
vector 116  scenario.node[5].appl  acceleration  ETV
vector 117  scenario.node[5].appl  controllerAcceleration  ETV
vector 113  scenario.node[5].appl  speed  ETV
vector 114  scenario.node[5].appl  posx  ETV
vector 115  scenario.node[5].appl  posy  ETV
vector 132  scenario.node[6].appl  distance  ETV
vector 133  scenario.node[6].appl  relativeSpeed  ETV
vector 134  scenario.node[6].appl  nodeId  ETV
vector 138  scenario.node[6].appl  acceleration  ETV
vector 139  scenario.node[6].appl  controllerAcceleration  ETV
vector 135  scenario.node[6].appl  speed  ETV
vector 136  scenario.node[6].appl  posx  ETV
vector 137  scenario.node[6].appl  posy  ETV
vector 154  scenario.node[7].appl  distance  ETV
vector 155  scenario.node[7].appl  relativeSpeed  ETV
vector 156  scenario.node[7].appl  nodeId  ETV
vector 160  scenario.node[7].appl  acceleration  ETV
vector 161  scenario.node[7].appl  controllerAcceleration  ETV
vector 157  scenario.node[7].appl  speed  ETV
vector 158  scenario.node[7].appl  posx  ETV
vector 159  scenario.node[7].appl  posy  ETV
vector 168  scenario.node[7].prot  frontDelay  ETV
vector 166  scenario.node[7].prot  frontDelayId  ETV
vector 146  scenario.node[6].prot  frontDelay  ETV
vector 144  scenario.node[6].prot  frontDelayId  ETV
vector 35  scenario.node[1].prot  leaderDelay  ETV
vector 33  scenario.node[1].prot  leaderDelayId  ETV
vector 36  scenario.node[1].prot  frontDelay  ETV
vector 34  scenario.node[1].prot  frontDelayId  ETV
vector 57  scenario.node[2].prot  leaderDelay  ETV
vector 55  scenario.node[2].prot  leaderDelayId  ETV
vector 79  scenario.node[3].prot  leaderDelay  ETV
vector 77  scenario.node[3].prot  leaderDelayId  ETV
vector 101  scenario.node[4].prot  leaderDelay  ETV
vector 99  scenario.node[4].prot  leaderDelayId  ETV
vector 123  scenario.node[5].prot  leaderDelay  ETV
vector 121  scenario.node[5].prot  leaderDelayId  ETV
vector 145  scenario.node[6].prot  leaderDelay  ETV
vector 143  scenario.node[6].prot  leaderDelayId  ETV
vector 167  scenario.node[7].prot  leaderDelay  ETV
vector 165  scenario.node[7].prot  leaderDelayId  ETV
vector 102  scenario.node[4].prot  frontDelay  ETV
vector 100  scenario.node[4].prot  frontDelayId  ETV
vector 80  scenario.node[3].prot  frontDelay  ETV
vector 78  scenario.node[3].prot  frontDelayId  ETV
vector 124  scenario.node[5].prot  frontDelay  ETV
vector 122  scenario.node[5].prot  frontDelayId  ETV
vector 58  scenario.node[2].prot  frontDelay  ETV
vector 56  scenario.node[2].prot  frontDelayId  ETV
vector 8  scenario.node[0].prot  nodeId  ETV
vector 9  scenario.node[0].prot  busyTime  ETV
vector 10  scenario.node[0].prot  collisions  ETV
vector 30  scenario.node[1].prot  nodeId  ETV
vector 31  scenario.node[1].prot  busyTime  ETV
vector 32  scenario.node[1].prot  collisions  ETV
vector 52  scenario.node[2].prot  nodeId  ETV
vector 53  scenario.node[2].prot  busyTime  ETV
vector 54  scenario.node[2].prot  collisions  ETV
vector 74  scenario.node[3].prot  nodeId  ETV
vector 75  scenario.node[3].prot  busyTime  ETV
vector 76  scenario.node[3].prot  collisions  ETV
vector 96  scenario.node[4].prot  nodeId  ETV
vector 97  scenario.node[4].prot  busyTime  ETV
vector 98  scenario.node[4].prot  collisions  ETV
vector 118  scenario.node[5].prot  nodeId  ETV
vector 119  scenario.node[5].prot  busyTime  ETV
vector 120  scenario.node[5].prot  collisions  ETV
vector 140  scenario.node[6].prot  nodeId  ETV
vector 141  scenario.node[6].prot  busyTime  ETV
vector 142  scenario.node[6].prot  collisions  ETV
vector 162  scenario.node[7].prot  nodeId  ETV
vector 163  scenario.node[7].prot  busyTime  ETV
vector 164  scenario.node[7].prot  collisions  ETV
7	11253 13859 232 328174 1.11 59.91 589 -1.5 1.5 -14.445953361693 993.24092335941
6	25112 18579 232 328174 1.11 59.91 589 -1.4722746795918 1.4513434175775 -12.507247963452 675.29835166926
5	43691 12081 232 328174 1.11 59.91 589 36.55 36.55 21527.95 786846.5725
4	55772 17910 232 328174 1.11 59.91 589 143.22663612406 2107.5427664439 663671.35759772 937490371.06001
3	73682 17913 232 328174 1.11 59.91 589 32.043521415285 35.298048086563 19676.061011579 657739.0394163
1	91595 9725 232 328174 1.11 59.91 589 0 0 0 0
0	101320 10314 232 328174 1.11 59.91 589 -1 -1 -589 589
2	111634 9725 232 328174 1.11 59.91 589 0 0 0 0
10	121359 858 5168 328662 2 60 59 0 0 0 0
9	122217 1154 5168 328662 2 60 59 0.023297 0.02625 1.545797 0.040508375209
8	123371 799 5168 328662 2 60 59 0 0 0 0
29	124170 19469 233 328175 1.11 59.91 589 -1.5233934275451 1.524149205505 -0.31761723293296 515.88293279863
28	143639 19475 233 328175 1.11 59.91 589 -1.4872877092465 1.463211989411 -0.42255664882589 351.42342069609
27	163114 12670 233 328175 1.11 59.91 589 36.55 36.55 21527.95 786846.5725
26	175784 18502 233 328175 1.11 59.91 589 128.22663612366 2082.6296333878 653398.28332991 912477040.48692
25	194286 18494 233 328175 1.11 59.91 589 32.03605099481 35.303460503678 19577.348389696 651040.88647911
23	212780 19655 233 328175 1.11 59.91 589 -1.2679196193544 2.1732908282661 98.837694362917 294.96684479667
22	232435 18500 233 328175 1.11 59.91 589 8.8020561746159 21.50900751681 7915.1000153738 114688.84899109
24	250935 10314 233 328175 1.11 59.91 589 1 1 589 589
36	261249 23690 1034 328420 1.262217551074 59.962218592835 588 0.099999089509 0.100012588138 58.800000142523 5.8800000342033
35	284939 23690 1034 328420 1.262217551074 59.962218592835 588 0.099999089509 0.100012588138 58.800000142523 5.8800000342033
34	308629 16109 1034 328420 1.262217551074 59.962218592835 588 1 1 588 588
33	324738 16109 1034 328420 1.262217551074 59.962218592835 588 1 1 588 588
32	340847 858 5169 328663 2 60 59 0 0 0 0
31	341705 1213 5169 328663 2 60 59 0.023296 0.02625 1.545796 0.040508328616
30	342918 858 5169 328663 2 60 59 1 1 59 59
51	343776 19380 234 328176 1.11 59.91 589 -1.4963007030882 1.4967154648799 -1.4071505497715 498.30427774031
50	363156 19411 234 328176 1.11 59.91 589 -1.4778825378116 1.4526090817121 -1.5445430093393 350.77478473615
49	382567 12670 234 328176 1.11 59.91 589 36.55 36.55 21527.95 786846.5725
48	395237 18503 234 328176 1.11 59.91 589 113.22663612366 2060.2124531228 643518.0201379 889263588.76673
47	413740 18488 234 328176 1.11 59.91 589 31.987989312049 35.297752564191 19503.137265205 646197.76916696
45	432228 19787 234 328176 1.11 59.91 589 -0.019406110204685 0.47886694115632 74.215350057163 26.375498913598
44	452015 18488 234 328176 1.11 59.91 589 10.975845843589 18.414932025948 7522.778969512 100122.84772138
46	470503 10314 234 328176 1.11 59.91 589 2 2 1178 2356
58	480817 23713 1312 328701 1.302597001386 60.002598253717 588 0.099999089695 0.100012556866 58.800000353093 5.8800000763099
57	504530 23692 1040 328426 1.262217601108 59.96221866763 588 0.099999089542 0.100012588174 58.800000167284 5.8800000391556
56	528222 16118 1312 328701 1.302597001386 60.002598253717 588 2 2 1176 2352
55	544340 16100 1040 328426 1.262217601108 59.96221866763 588 2 2 1176 2352
54	560440 858 5170 328664 2 60 59 0 0 0 0
53	561298 1213 5170 328664 2 60 59 0.023297 0.02625 1.545797 0.040508375209
52	562511 858 5170 328664 2 60 59 2 2 118 236
73	563369 19379 235 328177 1.11 59.91 589 -1.5144504131526 1.5154441755917 -2.8265919006895 511.12911813704
72	582748 19412 235 328177 1.11 59.91 589 -1.4663368983037 1.440624317425 -2.9968713189344 346.85160483539
71	602160 12670 235 328177 1.11 59.91 589 36.55 36.55 21527.95 786846.5725
70	614830 18498 235 328177 1.11 59.91 589 98.226636123657 2038.2365794592 633800.26763468 866933479.22919
69	633328 18496 235 328177 1.11 59.91 589 31.645119489703 35.285277948335 19433.327635667 641676.91442421
67	651824 19864 235 328177 1.11 59.91 589 -0.015760248858889 0.42580455252617 69.8250749681 22.369382971808
66	671688 18475 235 328177 1.11 59.91 589 10.981611162399 17.97296101433 7360.3563106319 95141.085546775
68	690163 10314 235 328177 1.11 59.91 589 3 3 1767 5301
80	700477 23710 1176 328556 1.287873751213 59.987874887629 588 0.099999089593 0.100012558822 58.800000237178 5.8800000531278
79	724187 23690 1046 328432 1.262217651143 59.962218740958 588 0.099999089559 0.100012588226 58.800000190577 5.8800000438141
78	747877 16130 1176 328556 1.287873751213 59.987874887629 588 3 3 1764 5292
77	764007 16109 1046 328432 1.262217651143 59.962218740958 588 3 3 1764 5292
76	780116 858 5171 328665 2 60 59 0 0 0 0
75	780974 1213 5171 328665 2 60 59 0.023297 0.02625 1.545797 0.040508375209
74	782187 858 5171 328665 2 60 59 3 3 177 531
95	783045 19356 236 328178 1.11 59.91 589 -1.5000260632202 1.5032357082073 -4.5885892140434 502.16547011928
94	802401 19422 236 328178 1.11 59.91 589 -1.4562064477339 1.4309924748261 -4.8160006270606 343.27503050851
93	821823 12670 236 328178 1.11 59.91 589 36.55 36.55 21527.95 786846.5725
92	834493 18490 236 328178 1.11 59.91 589 83.22663230896 2016.7953139639 624230.18426622 845428765.64082
91	852983 18489 236 328178 1.11 59.91 589 31.368666842665 35.272517835923 19368.851269622 637531.75926989
89	871472 19908 236 328178 1.11 59.91 589 -0.013274208961718 0.37244552193102 64.506334757827 19.13158031411
88	891380 18494 236 328178 1.11 59.91 589 10.990844871028 17.437616646294 7212.7938411373 90729.800989421
90	909874 10314 236 328178 1.11 59.91 589 4 4 2356 9424
102	920188 24300 1108 328488 1.276579701178 59.976580812515 588 0.099999089568 0.100012558779 58.800000212099 5.8800000481117
101	944488 24290 1052 328438 1.262217701177 59.962218812508 588 0.099999089567 0.10001258829 58.800000212093 5.8800000481174
100	968778 16708 1108 328488 1.276579701178 59.976580812515 588 4 4 2352 9408
99	985486 16118 1052 328438 1.262217701177 59.962218812508 588 4 4 2352 9408
98	1001604 858 5172 328666 2 60 59 0 0 0 0
97	1002462 1213 5172 328666 2 60 59 0.023297 0.02625 1.545797 0.040508375209
96	1003675 858 5172 328666 2 60 59 4 4 236 944
117	1004533 19951 237 328179 1.11 59.91 589 -1.5085423939993 1.5107019296717 -6.7130898466752 511.45307516861
116	1024484 19975 237 328179 1.11 59.91 589 -1.4566506899584 1.4331525222637 -6.9705231903978 346.51666059905
115	1044459 13259 237 328179 1.11 59.91 589 36.55 36.55 21527.95 786846.5725
114	1057718 19074 237 328179 1.11 59.91 589 68.22663230896 1995.9754912427 614790.47870122 824683693.95758
113	1076792 19090 237 328179 1.11 59.91 589 31.149576357956 35.27376666952 19310.577503948 633814.54087506
111	1095882 20342 237 328179 1.11 59.91 589 -0.030357877681695 0.33361775862375 58.321925680532 16.090633128203
110	1116224 19074 237 328179 1.11 59.91 589 10.98274220727 16.815499364776 7082.5400896917 86924.560650864
112	1135298 10903 237 328179 1.11 59.91 589 5 5 2945 14725
124	1146201 24288 1244 328624 1.297503851282 59.997505028696 588 0.09999908961 0.100012565731 58.800000278176 5.8800000613285
123	1170489 24268 1058 328444 1.262217751212 59.962218881992 588 0.099999089575 0.100012588366 58.800000231542 5.8800000520071
122	1194757 16704 1244 328624 1.297503851282 59.997505028696 588 5 5 2940 14700
121	1211461 16695 1058 328444 1.262217751212 59.962218881992 588 5 5 2940 14700
120	1228156 917 5173 328667 2 60 59 0 0 0 0
119	1229073 1272 5173 328667 2 60 59 0.023297 0.02625 1.545797 0.040508375209
118	1230345 917 5173 328667 2 60 59 5 5 295 1475
139	1231262 19943 238 328180 1.11 59.91 589 -1.4954220988194 1.4958358153227 -8.9999858759024 501.62489807184
138	1251205 19980 238 328180 1.11 59.91 589 -1.460422090075 1.4357848715612 -9.3814960122327 348.54569979363
137	1271185 13259 238 328180 1.11 59.91 589 36.55 36.55 21527.95 786846.5725
136	1284444 19074 238 328180 1.11 59.91 589 53.226634216309 1975.8006502147 605467.59651504 804641816.9891
135	1303518 19082 238 328180 1.11 59.91 589 30.967499559644 35.277212624761 19258.744634794 630530.52920538
133	1322600 20606 238 328180 1.11 59.91 589 -0.0098296338834132 0.30889405745522 51.902574386479 13.435775760172
132	1343206 19075 238 328180 1.11 59.91 589 10.980372571909 16.170012465911 6965.8455287904 83641.80597464
134	1362281 10903 238 328180 1.11 59.91 589 6 6 3534 21204
146	1373184 24294 970 328350 1.247595300901 59.947596205161 588 0.099999089732 0.100012572938 58.800000005022 5.8800000066994
145	1397478 24290 1064 328450 1.262217801247 59.962218949328 588 0.099999089576 0.10001258845 58.800000248843 5.8800000554673
144	1421768 16718 970 328350 1.247595300901 59.947596205161 588 6 6 3528 21168
143	1438486 16700 1064 328450 1.262217801247 59.962218949328 588 6 6 3528 21168
142	1455186 917 5174 328668 2 60 59 0 0 0 0
141	1456103 1272 5174 328668 2 60 59 0.023297 0.02625 1.545797 0.040508375209
140	1457375 917 5174 328668 2 60 59 6 6 354 2124
161	1458292 19953 239 328181 1.11 59.91 589 -1.4854568406137 1.4867112480971 -11.437655783302 489.05606181918
160	1478245 19990 239 328181 1.11 59.91 589 -1.4553421764653 1.4301913981612 -11.938147211557 346.30451332621
159	1498235 13259 239 328181 1.11 59.91 589 36.55 36.55 21527.95 786846.5725
158	1511494 19088 239 328181 1.11 59.91 589 38.226633262634 1956.2833881632 596242.04770863 785230589.00677
157	1530582 19090 239 328181 1.11 59.91 589 30.817848804585 35.271100417379 19213.482364779 627677.84804385
155	1549672 20670 239 328181 1.11 59.91 589 -0.0093026166700909 0.28695880622784 45.356084974959 10.891042004168
154	1570342 19087 239 328181 1.11 59.91 589 10.995314621228 15.512134233258 6868.643561009 80972.766435011
156	1589429 10903 239 328181 1.11 59.91 589 7 7 4123 28861
168	1600332 24278 832 328212 1.212137150797 59.912138005426 588 0.099999089752 0.100012594481 58.799999955391 5.8799999967801
167	1624610 24281 1070 328456 1.262217851281 59.962219014473 588 0.099999089575 0.100012588538 58.800000263954 5.8800000584895
166	1648891 16707 832 328212 1.212137150797 59.912138005426 588 7 7 4116 28812
165	1665598 16700 1070 328456 1.262217851281 59.962219014473 588 7 7 4116 28812
164	1682298 917 5175 328669 2 60 59 0 0 0 0
163	1683215 1272 5175 328669 2 60 59 0.023297 0.02625 1.545797 0.040508375209
162	1684487 917 5175 328669 2 60 59 7 7 413 2891
