version 2
run SinusoidalJammingDetail-364-20170801-17:21:37-29996
attr CACCSpacing 9
attr attackAcc -30
attr attackPos 7
attr attackSpeed 150
attr attackStart 30
attr attacker 1
attr beaconInterval 0.1
attr configname SinusoidalJammingDetail
attr controller 1
attr datetime 20170801-17:21:37
attr experiment SinusoidalJammingDetail
attr fakeAcc "(1 == 4)"
attr fakePos "(1 == 2)"
attr fakeSpeed "(1 == 3)"
attr inifile omnetpp_364.ini
attr iterationvars "$leaderSpeed=100, $controller=1, $CACCSpacing=9, $sController=\"CACC\", $attacker=1, $attackStart=30, $attackSpeed=150, $attackPos=7, $attackAcc=-30, $0=9, $1=0, $nCars=8, $platoonSize=8, $nLanes=1, $beaconInterval=0.1, $priority=2, $packetSize=200, $ploegH=0.5, $leaderHeadway=1.2, $fakeSpeed=(1 == 3), $fakeAcc=(1 == 4), $fakePos=(1 == 2)"
attr iterationvarsf leaderSpeed=100,controller=1,CACCSpacing=9,sController=CACC,attacker=1,attackStart=30,attackSpeed=150,attackPos=7,attackAcc=-30,9,0,nCars=8,platoonSize=8,nLanes=1,beaconInterval=0.1,priority=2,packetSize=200,ploegH=0.5,leaderHeadway=1.2,fakeSpeed=(1_==_3),fakeAcc=(1_==_4),fakePos=(1_==_2)-
attr leaderHeadway 1.2
attr leaderSpeed 100
attr measurement "$leaderSpeed=100, $controller=1, $CACCSpacing=9, $sController=\"CACC\", $attacker=1, $attackStart=30, $attackSpeed=150, $attackPos=7, $attackAcc=-30, $0=9, $1=0, $nCars=8, $platoonSize=8, $nLanes=1, $beaconInterval=0.1, $priority=2, $packetSize=200, $ploegH=0.5, $leaderHeadway=1.2, $fakeSpeed=(1 == 3), $fakeAcc=(1 == 4), $fakePos=(1 == 2)"
attr nCars 8
attr nLanes 1
attr network scenario
attr packetSize 200
attr platoonSize 8
attr ploegH 0.5
attr priority 2
attr processid 29996
attr repetition 4
attr replication #4
attr resultdir results
attr runnumber 364
attr sController "\"CACC\""
attr seedset 4
param **.coreDebug false
param **.debug false
param **.headway 0.1s
param **.numberOfCars 8
param **.numberOfCarsPerPlatoon 8
param **.numberOfLanes 1
param **.numericController 1
param **.traffic.nCars 8
param **.traffic.nLanes 1
param **.traffic.platoonInsertDistance 9m
param **.traffic.platoonInsertHeadway 0s
param **.traffic.platoonInsertSpeed 100kmph
param **.traffic.platoonInsertTime "1 s"
param **.traffic.platoonLeaderHeadway 1.2s
param **.traffic.platoonSize 8
param **.traffic.platooningVType "\"vtypeauto\""
param **.traffic_type "\"PlatoonsTrafficManager\""
param *.**.nic.mac1609_4.bitrate 6Mbps
param *.**.nic.mac1609_4.txPower 100mW
param *.**.nic.mac1609_4.useServiceChannel false
param *.**.nic.phy80211p.analogueModels "xmldoc(\"config.xml\")"
param *.**.nic.phy80211p.decider "xmldoc(\"config.xml\")"
param *.**.nic.phy80211p.maxTXPower 100mW
param *.**.nic.phy80211p.sensitivity -94dBm
param *.**.nic.phy80211p.thermalNoise -95dBm
param *.**.nic.phy80211p.usePropagationDelay true
param *.**.nic.phy80211p.useThermalNoise true
param *.annotations.draw false
param *.connectionManager.alpha 2.0
param *.connectionManager.carrierFrequency "5.890e9 Hz"
param *.connectionManager.pMax 100mW
param *.connectionManager.sat -94dBm
param *.connectionManager.sendDirect true
param *.manager.autoShutdown true
param *.manager.commandLine "\"sumo --remote-port $port --seed $seed --configuration-file $configFile\""
param *.manager.configFile "\"./sumocfg/freeway.sumo.cfg\""
param *.manager.host "\"localhost\""
param *.manager.margin 25
param *.manager.moduleDisplayString "\"\""
param *.manager.moduleName "\"node\""
param *.manager.moduleType "\"Car\""
param *.manager.updateInterval 0.01s
param *.node[*].appl.attackStart 30s
param *.node[*].appl.attackerType 1
param *.node[*].appl.simulationDuration "60 s"
param *.node[*].appl_type "\"SimplePlatooningApp\""
param *.node[*].helper.nCars 8
param *.node[*].helper.nLanes 1
param *.node[*].helper.platoonSize 8
param *.node[*].helper_type "\"PositionHelper\""
param *.node[*].mobility.x 0
param *.node[*].mobility.y 0
param *.node[*].mobility.z 1.895
param *.node[*].prot.attackStart 30s
param *.node[*].prot.attackerType 1
param *.node[*].prot.attackingNode 3
param *.node[*].prot.beaconingInterval 0.1s
param *.node[*].prot.fakeAcc "(1 == 4)"
param *.node[*].prot.fakePos "(1 == 2)"
param *.node[*].prot.fakeSpeed "(1 == 3)"
param *.node[*].prot.maliciousAcc "-30 mpss"
param *.node[*].prot.maliciousSpeed 150kmph
param *.node[*].prot.packetSize 200
param *.node[*].prot.priority 2
param *.node[*].prot.shiftX "7 m"
param *.node[*].prot.useControllerAcceleration true
param *.node[*].protocol_type "\"SimplePlatooningBeaconing\""
param *.node[*].scenario.accHeadway 0.1s
param *.node[*].scenario.caccC1 0.5
param *.node[*].scenario.caccOmegaN "0.2 Hz"
param *.node[*].scenario.caccSpacing 9m
param *.node[*].scenario.caccXi 1
param *.node[*].scenario.controller "\"CACC\""
param *.node[*].scenario.engineTau "0.5 s"
param *.node[*].scenario.leaderHeadway 1.2s
param *.node[*].scenario.leaderOscillationFrequency "0.2 Hz"
param *.node[*].scenario.leaderSpeed 100kmph
param *.node[*].scenario.oscillationAmplitude "10 kmph"
param *.node[*].scenario.ploegH 0.5s
param *.node[*].scenario.ploegKd 0.7
param *.node[*].scenario.ploegKp 0.2
param *.node[*].scenario.startOscillating "5 s"
param *.node[*].scenario.useRealisticEngine false
param *.node[*].scenario_type "\"SinusoidalScenario\""
param *.node[*].unicast.packetLossRate 0
param *.obstacles.debug false
param *.playgroundSizeX 65000m
param *.playgroundSizeY 25000m
param *.playgroundSizeZ 50m
param *.world.use2D false
param *.world.useTorus false

vector 0  scenario.node[0].appl  distance  ETV
vector 1  scenario.node[0].appl  relativeSpeed  ETV
vector 2  scenario.node[0].appl  nodeId  ETV
vector 6  scenario.node[0].appl  acceleration  ETV
vector 7  scenario.node[0].appl  controllerAcceleration  ETV
vector 3  scenario.node[0].appl  speed  ETV
vector 4  scenario.node[0].appl  posx  ETV
vector 5  scenario.node[0].appl  posy  ETV
vector 22  scenario.node[1].appl  distance  ETV
vector 23  scenario.node[1].appl  relativeSpeed  ETV
vector 24  scenario.node[1].appl  nodeId  ETV
vector 28  scenario.node[1].appl  acceleration  ETV
vector 29  scenario.node[1].appl  controllerAcceleration  ETV
vector 25  scenario.node[1].appl  speed  ETV
vector 26  scenario.node[1].appl  posx  ETV
vector 27  scenario.node[1].appl  posy  ETV
vector 44  scenario.node[2].appl  distance  ETV
vector 45  scenario.node[2].appl  relativeSpeed  ETV
vector 46  scenario.node[2].appl  nodeId  ETV
vector 50  scenario.node[2].appl  acceleration  ETV
vector 51  scenario.node[2].appl  controllerAcceleration  ETV
vector 47  scenario.node[2].appl  speed  ETV
vector 48  scenario.node[2].appl  posx  ETV
vector 49  scenario.node[2].appl  posy  ETV
vector 66  scenario.node[3].appl  distance  ETV
vector 67  scenario.node[3].appl  relativeSpeed  ETV
vector 68  scenario.node[3].appl  nodeId  ETV
vector 72  scenario.node[3].appl  acceleration  ETV
vector 73  scenario.node[3].appl  controllerAcceleration  ETV
vector 69  scenario.node[3].appl  speed  ETV
vector 70  scenario.node[3].appl  posx  ETV
vector 71  scenario.node[3].appl  posy  ETV
vector 88  scenario.node[4].appl  distance  ETV
vector 89  scenario.node[4].appl  relativeSpeed  ETV
vector 90  scenario.node[4].appl  nodeId  ETV
vector 94  scenario.node[4].appl  acceleration  ETV
vector 95  scenario.node[4].appl  controllerAcceleration  ETV
vector 91  scenario.node[4].appl  speed  ETV
vector 92  scenario.node[4].appl  posx  ETV
vector 93  scenario.node[4].appl  posy  ETV
vector 110  scenario.node[5].appl  distance  ETV
vector 111  scenario.node[5].appl  relativeSpeed  ETV
vector 112  scenario.node[5].appl  nodeId  ETV
vector 116  scenario.node[5].appl  acceleration  ETV
vector 117  scenario.node[5].appl  controllerAcceleration  ETV
vector 113  scenario.node[5].appl  speed  ETV
vector 114  scenario.node[5].appl  posx  ETV
vector 115  scenario.node[5].appl  posy  ETV
vector 132  scenario.node[6].appl  distance  ETV
vector 133  scenario.node[6].appl  relativeSpeed  ETV
vector 134  scenario.node[6].appl  nodeId  ETV
vector 138  scenario.node[6].appl  acceleration  ETV
vector 139  scenario.node[6].appl  controllerAcceleration  ETV
vector 135  scenario.node[6].appl  speed  ETV
vector 136  scenario.node[6].appl  posx  ETV
vector 137  scenario.node[6].appl  posy  ETV
vector 154  scenario.node[7].appl  distance  ETV
vector 155  scenario.node[7].appl  relativeSpeed  ETV
vector 156  scenario.node[7].appl  nodeId  ETV
vector 160  scenario.node[7].appl  acceleration  ETV
vector 161  scenario.node[7].appl  controllerAcceleration  ETV
vector 157  scenario.node[7].appl  speed  ETV
vector 158  scenario.node[7].appl  posx  ETV
vector 159  scenario.node[7].appl  posy  ETV
vector 102  scenario.node[4].prot  frontDelay  ETV
vector 100  scenario.node[4].prot  frontDelayId  ETV
vector 35  scenario.node[1].prot  leaderDelay  ETV
vector 33  scenario.node[1].prot  leaderDelayId  ETV
vector 36  scenario.node[1].prot  frontDelay  ETV
vector 34  scenario.node[1].prot  frontDelayId  ETV
vector 57  scenario.node[2].prot  leaderDelay  ETV
vector 55  scenario.node[2].prot  leaderDelayId  ETV
vector 79  scenario.node[3].prot  leaderDelay  ETV
vector 77  scenario.node[3].prot  leaderDelayId  ETV
vector 101  scenario.node[4].prot  leaderDelay  ETV
vector 99  scenario.node[4].prot  leaderDelayId  ETV
vector 123  scenario.node[5].prot  leaderDelay  ETV
vector 121  scenario.node[5].prot  leaderDelayId  ETV
vector 145  scenario.node[6].prot  leaderDelay  ETV
vector 143  scenario.node[6].prot  leaderDelayId  ETV
vector 167  scenario.node[7].prot  leaderDelay  ETV
vector 165  scenario.node[7].prot  leaderDelayId  ETV
vector 80  scenario.node[3].prot  frontDelay  ETV
vector 78  scenario.node[3].prot  frontDelayId  ETV
vector 146  scenario.node[6].prot  frontDelay  ETV
vector 144  scenario.node[6].prot  frontDelayId  ETV
vector 58  scenario.node[2].prot  frontDelay  ETV
vector 56  scenario.node[2].prot  frontDelayId  ETV
vector 124  scenario.node[5].prot  frontDelay  ETV
vector 122  scenario.node[5].prot  frontDelayId  ETV
vector 168  scenario.node[7].prot  frontDelay  ETV
vector 166  scenario.node[7].prot  frontDelayId  ETV
vector 8  scenario.node[0].prot  nodeId  ETV
vector 9  scenario.node[0].prot  busyTime  ETV
vector 10  scenario.node[0].prot  collisions  ETV
vector 30  scenario.node[1].prot  nodeId  ETV
vector 31  scenario.node[1].prot  busyTime  ETV
vector 32  scenario.node[1].prot  collisions  ETV
vector 52  scenario.node[2].prot  nodeId  ETV
vector 53  scenario.node[2].prot  busyTime  ETV
vector 54  scenario.node[2].prot  collisions  ETV
vector 74  scenario.node[3].prot  nodeId  ETV
vector 75  scenario.node[3].prot  busyTime  ETV
vector 76  scenario.node[3].prot  collisions  ETV
vector 96  scenario.node[4].prot  nodeId  ETV
vector 97  scenario.node[4].prot  busyTime  ETV
vector 98  scenario.node[4].prot  collisions  ETV
vector 118  scenario.node[5].prot  nodeId  ETV
vector 119  scenario.node[5].prot  busyTime  ETV
vector 120  scenario.node[5].prot  collisions  ETV
vector 140  scenario.node[6].prot  nodeId  ETV
vector 141  scenario.node[6].prot  busyTime  ETV
vector 142  scenario.node[6].prot  collisions  ETV
vector 162  scenario.node[7].prot  nodeId  ETV
vector 163  scenario.node[7].prot  busyTime  ETV
vector 164  scenario.node[7].prot  collisions  ETV
7	232	1.11	-8.430731206488e-07
7	788	1.21	-8.247038785214e-07
7	1344	1.31	-7.948429328053e-07
7	1900	1.41	-7.5609037608615e-07
7	2456	1.51	-7.1073863239235e-07
7	3012	1.61	-6.6078666094427e-07
7	3568	1.71	-6.079568990458e-07
7	4124	1.81	-5.5371389606762e-07
7	4680	1.91	-4.9928438983216e-07
7	5244	2.01	-4.4567811841034e-07
7	5800	2.11	-3.9370868165634e-07
7	6356	2.21	-3.4401411852514e-07
7	6912	2.31	-2.9707706872273e-07
7	7468	2.41	-2.5324398578164e-07
7	8024	2.51	-2.1274344064182e-07
7	8580	2.61	-1.7570315336002e-07
7	9136	2.71	-1.4216582755466e-07
7	9692	2.81	-1.1210364547765e-07
7	10248	2.91	-8.5431519636359e-08
7	10812	3.01	-6.2018816748832e-08
7	11368	3.11	-4.1699859565369e-08
7	11924	3.21	-2.4283316690799e-08
7	12480	3.31	-9.5601571103998e-09
7	13036	3.41	2.6894362292751e-09
7	13592	3.51	1.2690140493987e-08
7	14148	3.61	2.0666576006079e-08
7	14704	3.71	2.6839355626862e-08
7	15260	3.81	3.1421798496467e-08
7	15816	3.91	3.4617407607129e-08
7	16380	4.01	3.6617997523081e-08
7	16936	4.11	3.7602347902066e-08
7	17492	4.21	3.7735404134764e-08
7	18048	4.31	3.7167730226884e-08
7	18604	4.41	3.6035434192172e-08
7	19160	4.51	3.446024621212e-08
7	19716	4.61	3.2549973383311e-08
7	20272	4.71	3.0399071704323e-08
7	20828	4.81	2.8089345960325e-08
7	21384	4.91	2.5690727767369e-08
7	21949	5.01	2.326218861981e-08
7	22506	5.11	0.34814789186464
7	23063	5.21	0.68726937161622
7	23620	5.31	1.0064706311115
7	24177	5.41	1.2963311698934
7	24734	5.51	1.5
7	25291	5.61	1.5
7	25848	5.71	1.5
7	26405	5.81	1.5
7	26962	5.91	1.5
7	27527	6.01	1.5
7	28084	6.11	1.5
7	28641	6.21	1.5
7	29198	6.31	1.5
7	29755	6.41	1.5
7	30312	6.51	1.4919234148491
7	30869	6.61	1.226499329248
7	31426	6.71	0.92305384082895
7	31983	6.81	0.58908102066068
7	32540	6.91	0.2323562172788
7	33105	7.01	-0.13919559696193
7	33662	7.11	-0.51762846464532
7	34219	7.21	-0.89509993840359
7	34776	7.31	-1.2639902875456
7	35333	7.41	-1.5
7	35890	7.51	-1.5
7	36447	7.61	-1.5
7	37004	7.71	-1.5
7	37561	7.81	-1.5
7	38118	7.91	-1.5
7	38683	8.01	-1.5
7	39240	8.11	-1.5
7	39797	8.21	-1.5
7	40354	8.31	-1.5
7	40911	8.41	-1.5
7	41468	8.51	-1.5
7	42025	8.61	-1.5
7	42582	8.71	-1.5
7	43139	8.81	-1.5
7	43696	8.91	-1.5
7	44261	9.01	-1.5
7	44818	9.11	-1.5
7	45375	9.21	-1.5
7	45932	9.31	-1.5
7	46489	9.41	-1.5
7	47046	9.51	-1.1784535904302
7	47603	9.61	-0.73985166419522
7	48160	9.71	-0.29046662059022
7	48717	9.81	0.15868205669937
7	49274	9.91	0.59737147691163
7	49839	10.01	1.0162504341895
7	50396	10.11	1.4069035498921
7	50953	10.21	1.5
7	51510	10.31	1.5
7	52067	10.41	1.5
7	52624	10.51	1.5
7	53181	10.61	1.5
7	53738	10.71	1.5
7	54295	10.81	1.5
7	54852	10.91	1.5
7	55417	11.01	1.5
7	55974	11.11	1.5
7	56531	11.21	1.5
7	57088	11.31	1.5
7	57645	11.41	1.5
7	58202	11.51	1.5
7	58759	11.61	1.5
7	59316	11.71	1.5
7	59873	11.81	1.5
7	60430	11.91	1.142056952341
7	60995	12.01	0.73271074174567
7	61552	12.11	0.30763491703603
7	62109	12.21	-0.1229018340005
7	62666	12.31	-0.54917422864573
7	63223	12.41	-0.96209331715876
7	63780	12.51	-1.353290027524
7	64337	12.61	-1.5
7	64894	12.71	-1.5
7	65451	12.81	-1.5
7	66008	12.91	-1.5
7	66573	13.01	-1.5
7	67130	13.11	-1.5
7	67687	13.21	-1.5
7	68244	13.31	-1.5
7	68801	13.41	-1.5
7	69358	13.51	-1.5
7	69915	13.61	-1.5
7	70472	13.71	-1.5
7	71029	13.81	-1.5
7	71586	13.91	-1.5
7	72151	14.01	-1.5
7	72708	14.11	-1.5
7	73265	14.21	-1.5
7	73822	14.31	-1.5
7	74379	14.41	-1.3008305793136
7	74936	14.51	-0.8883573602082
7	75493	14.61	-0.45792464374534
7	76050	14.71	-0.020297800477731
7	76607	14.81	0.41435934757689
7	77164	14.91	0.83657487484984
7	77729	15.01	1.2376491838973
7	78286	15.11	1.5
7	78843	15.21	1.5
7	79400	15.31	1.5
7	79957	15.41	1.5
7	80514	15.51	1.5
7	81071	15.61	1.5
7	81628	15.71	1.5
7	82185	15.81	1.5
7	82742	15.91	1.5
7	83307	16.01	1.5
7	83864	16.11	1.5
7	84421	16.21	1.5
7	84978	16.31	1.5
7	85535	16.41	1.5
7	86092	16.51	1.5
7	86649	16.61	1.5
7	87206	16.71	1.5
7	87763	16.81	1.5
7	88320	16.91	1.2451238477401
7	88885	17.01	0.83347870135556
7	89442	17.11	0.40470958877082
7	89999	17.21	-0.03059806221717
7	90556	17.31	-0.46243980386486
7	91113	17.41	-0.8814833530446
7	91670	17.51	-1.2791500631707
7	92227	17.61	-1.5
7	92784	17.71	-1.5
7	93341	17.81	-1.5
7	93898	17.91	-1.5
7	94463	18.01	-1.5
7	95020	18.11	-1.5
7	95577	18.21	-1.5
7	96134	18.31	-1.5
7	96691	18.41	-1.5
7	97248	18.51	-1.5
7	97805	18.61	-1.5
7	98362	18.71	-1.5
7	98919	18.81	-1.5
7	99476	18.91	-1.5
7	100041	19.01	-1.5
7	100598	19.11	-1.5
7	101155	19.21	-1.5
7	101712	19.31	-1.5
7	102269	19.41	-1.2657245815118
7	102826	19.51	-0.85377693481412
7	103383	19.61	-0.42439560037995
7	103940	19.71	0.011767371269134
7	104497	19.81	0.44464851836491
7	105054	19.91	0.86486384400621
7	105619	20.01	1.2637899041136
7	106176	20.11	1.5
7	106733	20.21	1.5
7	107290	20.31	1.5
7	107847	20.41	1.5
7	108404	20.51	1.5
7	108961	20.61	1.5
7	109518	20.71	1.5
7	110075	20.81	1.5
7	110632	20.91	1.5
7	111197	21.01	1.5
7	111754	21.11	1.5
7	112311	21.21	1.5
7	112868	21.31	1.5
7	113425	21.41	1.5
7	113982	21.51	1.5
7	114539	21.61	1.5
7	115096	21.71	1.5
7	115653	21.81	1.5
7	116210	21.91	1.258091551777
7	116775	22.01	0.8462549163489
7	117332	22.11	0.41709956367568
7	117889	22.21	-0.018747163542116
7	118446	22.31	-0.45124369149361
7	119003	22.41	-0.87102520538537
7	119560	22.51	-1.2694848794591
7	120117	22.61	-1.5
7	120674	22.71	-1.5
7	121231	22.81	-1.5
7	121788	22.91	-1.5
7	122353	23.01	-1.5
7	122910	23.11	-1.5
7	123467	23.21	-1.5
7	124024	23.31	-1.5
7	124581	23.41	-1.5
7	125138	23.51	-1.5
7	125695	23.61	-1.5
7	126252	23.71	-1.5
7	126809	23.81	-1.5
7	127366	23.91	-1.5
7	127931	24.01	-1.5
7	128488	24.11	-1.5
7	129045	24.21	-1.5
7	129602	24.31	-1.5
7	130159	24.41	-1.2609239651112
7	130716	24.51	-0.8490461568448
7	131273	24.61	-0.41980696481052
7	131830	24.71	0.016157099446737
7	132387	24.81	0.44879633966076
7	132944	24.91	0.86873882266934
7	133509	25.01	1.26737155572
7	134066	25.11	1.5
7	134623	25.21	1.5
7	135180	25.31	1.5
7	135737	25.41	1.5
7	136294	25.51	1.5
7	136851	25.61	1.5
7	137408	25.71	1.5
7	137965	25.81	1.5
7	138522	25.91	1.5
7	139087	26.01	1.5
7	139644	26.11	1.5
7	140201	26.21	1.5
7	140758	26.31	1.5
7	141315	26.41	1.5
7	141872	26.51	1.5
7	142429	26.61	1.5
7	142986	26.71	1.5
7	143543	26.81	1.5
7	144100	26.91	1.2598728518634
7	144665	27.01	0.84801032251441
7	145222	27.11	0.41880224309152
7	145779	27.21	-0.017118277441824
7	146336	27.31	-0.44970455708397
7	146893	27.41	-0.86958730431876
7	147450	27.51	-1.2681558149826
7	148007	27.61	-1.5
7	148564	27.71	-1.5
7	149121	27.81	-1.5
7	149678	27.91	-1.5
7	150243	28.01	-1.5
7	150800	28.11	-1.5
7	151357	28.21	-1.5
7	151914	28.31	-1.5
7	152471	28.41	-1.5
7	153028	28.51	-1.5
7	153585	28.61	-1.5
7	154142	28.71	-1.5
7	154699	28.81	-1.5
7	155256	28.91	-1.5
7	155821	29.01	-1.5
7	156378	29.11	-1.5
7	156935	29.21	-1.5
7	157492	29.31	-1.5
7	158049	29.41	-1.2602629232513
7	158606	29.51	-0.84839472385599
7	159163	29.61	-0.41917509845245
7	159720	29.71	0.016761581287305
7	160277	29.81	0.44936751475852
7	160834	29.91	0.86927243012183
7	161399	30.01	1.267864773911
7	161956	30.11	1.5
7	162513	30.21	1.5
7	163070	30.31	1.5
7	163627	30.41	1.5
7	164184	30.51	1.5
7	164741	30.61	1.5
7	165298	30.71	1.5
7	165855	30.81	1.5
7	166412	30.91	1.5
7	166977	31.01	1.5
7	167534	31.11	1.5
7	168091	31.21	1.5
7	168648	31.31	1.5
7	169205	31.41	1.5
7	169762	31.51	1.5
7	170319	31.61	1.5
7	170876	31.71	1.5
7	171433	31.81	1.5
7	171990	31.91	1.2601181665204
7	172555	32.01	0.8482520712972
7	173112	32.11	0.41903673064365
7	173669	32.21	-0.016893952363397
7	174226	32.31	-0.44949259223633
7	174783	32.41	-0.8693892809368
7	175340	32.51	-1.2679727801776
7	175897	32.61	-1.5
7	176454	32.71	-1.5
7	177011	32.81	-1.5
7	177568	32.91	-1.5
7	178133	33.01	-1.5
7	178690	33.11	-1.5
7	179247	33.21	-1.5
7	179804	33.31	-1.5
7	180361	33.41	-1.5
7	180918	33.51	-1.5
7	181475	33.61	-1.5
7	182032	33.71	-1.5
7	182589	33.81	-1.5
7	183146	33.91	-1.5
7	183711	34.01	-1.5
7	184268	34.11	-1.5
7	184825	34.21	-1.5
7	185382	34.31	-1.5
7	185939	34.41	-1.2601718862041
7	186496	34.51	-0.84830501011592
7	187053	34.61	-0.41908807937801
7	187610	34.71	0.016844829035612
7	188167	34.81	0.44944617558609
7	188724	34.91	0.86934591722741
7	189289	35.01	1.2679326987083
7	189846	35.11	1.5
7	190403	35.21	1.5
7	190960	35.31	1.5
7	191517	35.41	1.5
7	192074	35.51	1.5
7	192631	35.61	1.5
7	193188	35.71	1.5
7	193745	35.81	1.5
7	194302	35.91	1.5
7	194867	36.01	1.5
7	195424	36.11	1.5
7	195981	36.21	1.5
7	196538	36.31	1.5
7	197095	36.41	1.5
7	197652	36.51	1.5
7	198209	36.61	1.5
7	198766	36.71	1.5
7	199323	36.81	1.5
7	199880	36.91	1.2601519506571
7	200445	37.01	0.84828536435039
7	201002	37.11	0.41906902369788
7	201559	37.21	-0.016863058860221
7	202116	37.31	-0.44946340095391
7	202673	37.41	-0.86936200963904
7	203230	37.51	-1.2679475730701
7	203787	37.61	-1.5
7	204344	37.71	-1.5
7	204901	37.81	-1.5
7	205458	37.91	-1.5
7	206023	38.01	-1.5
7	206580	38.11	-1.5
7	207137	38.21	-1.5
7	207694	38.31	-1.5
7	208251	38.41	-1.5
7	208808	38.51	-1.5
7	209365	38.61	-1.5
7	209922	38.71	-1.5
7	210479	38.81	-1.5
7	211036	38.91	-1.5
7	211601	39.01	-1.5
7	212158	39.11	-1.5
7	212715	39.21	-1.5
7	213272	39.31	-1.5
7	213829	39.41	-1.2601593488036
7	214386	39.51	-0.84829265495814
7	214943	39.61	-0.41907609532306
7	215500	39.71	0.01685629371266
7	216057	39.81	0.44945700856354
7	216614	39.91	0.86935603769241
7	217179	40.01	1.2679420531458
7	217736	40.11	1.5
7	218293	40.21	1.5
7	218850	40.31	1.5
7	219407	40.41	1.5
7	219964	40.51	1.5
7	220521	40.61	1.5
7	221078	40.71	1.5
7	221635	40.81	1.5
7	222192	40.91	1.5
7	222757	41.01	1.5
7	223314	41.11	1.5
7	223871	41.21	1.5
7	224428	41.31	1.5
7	224985	41.41	1.5
7	225542	41.51	1.5
7	226099	41.61	1.5
7	226656	41.71	1.5
7	227213	41.81	1.5
7	227770	41.91	1.2601566033284
7	228335	42.01	0.84828994939093
7	228892	42.11	0.41907347102099
7	229449	42.21	-0.016858804279881
7	230006	42.31	-0.44945938079935
7	230563	42.41	-0.86935825390018
7	231120	42.51	-1.2679441016066
7	231677	42.61	-1.5
7	232234	42.71	-1.5
7	232791	42.81	-1.5
7	233348	42.91	-1.5
7	233913	43.01	-1.5
7	234470	43.11	-1.5
7	235027	43.21	-1.5
7	235584	43.31	-1.5
7	236141	43.41	-1.5
7	236698	43.51	-1.5
7	237255	43.61	-1.5
7	237812	43.71	-1.5
7	238369	43.81	-1.5
7	238926	43.91	-1.5
7	239491	44.01	-1.5
7	240048	44.11	-1.5
7	240605	44.21	-1.5
7	241162	44.31	-1.5
7	241719	44.41	-1.2601576221815
7	242276	44.51	-0.84829095343405
7	242833	44.61	-0.41907444490634
7	243390	44.71	0.016857872601886
7	243947	44.81	0.44945850045656
7	244504	44.91	0.86935743145978
7	245069	45.01	1.2679433414175
7	245626	45.11	1.5
7	246183	45.21	1.5
7	246740	45.31	1.5
7	247297	45.41	1.5
7	247854	45.51	1.5
7	248411	45.61	1.5
7	248968	45.71	1.5
7	249525	45.81	1.5
7	250082	45.91	1.5
7	250647	46.01	1.5
7	251204	46.11	1.5
7	251761	46.21	1.5
7	252318	46.31	1.5
7	252875	46.41	1.5
7	253432	46.51	1.5
7	253989	46.61	1.5
7	254546	46.71	1.5
7	255103	46.81	1.5
7	255660	46.91	1.2601572440828
7	256225	47.01	0.84829058083134
7	256782	47.11	0.41907408349529
7	257339	47.21	-0.016858218349689
7	257896	47.31	-0.44945882715379
7	258453	47.41	-0.86935773666939
7	259010	47.51	-1.2679436235256
7	259567	47.61	-1.5
7	260124	47.71	-1.5
7	260681	47.81	-1.5
7	261238	47.91	-1.5
7	261803	48.01	-1.5
7	262360	48.11	-1.5
7	262917	48.21	-1.5
7	263474	48.31	-1.5
7	264031	48.41	-1.5
7	264588	48.51	-1.5
7	265145	48.61	-1.5
7	265702	48.71	-1.5
7	266259	48.81	-1.5
7	266816	48.91	-1.5
7	267381	49.01	-1.5
7	267938	49.11	-1.5
7	268495	49.21	-1.5
7	269052	49.31	-1.5
7	269609	49.41	-1.2601573843952
7	270166	49.51	-0.84829071910406
7	270723	49.61	-0.41907421761473
7	271280	49.71	0.016858090042941
7	271837	49.81	0.44945870591676
7	272394	49.91	0.86935762340643
7	272959	50.01	1.2679435188356
7	273516	50.11	1.5
7	274073	50.21	1.5
7	274630	50.31	1.5
7	275187	50.41	1.5
6	232	1.11	-1.2391545567425e-07
6	788	1.21	-2.514333630188e-07
6	1344	1.31	-3.5153284727585e-07
6	1900	1.41	-4.2734420446777e-07
6	2456	1.51	-4.8187125401e-07
6	3012	1.61	-5.1795971955926e-07
6	3568	1.71	-5.3827413637464e-07
6	4124	1.81	-5.4528506154838e-07
6	4680	1.91	-5.4125663950799e-07
6	5244	2.01	-5.2824375984528e-07
6	5800	2.11	-5.080941889446e-07
6	6356	2.21	-4.8245141215375e-07
6	6912	2.31	-4.5276244975412e-07
6	7468	2.41	-4.202860282021e-07
6	8024	2.51	-3.8610643571246e-07
6	8580	2.61	-3.5114133822844e-07
6	9136	2.71	-3.1616025353287e-07
6	9692	2.81	-2.8179307776099e-07
6	10248	2.91	-2.4854536206931e-07
6	10812	3.01	-2.1681287876163e-07
6	11368	3.11	-1.8689298997288e-07
6	11924	3.21	-1.5899530581009e-07
6	12480	3.31	-1.3325838210676e-07
6	13036	3.41	-1.0975469422192e-07
6	13592	3.51	-8.8505203166278e-08
6	14148	3.61	-6.948575048682e-08
6	14704	3.71	-5.263665059374e-08
6	15260	3.81	-3.7870506730542e-08
6	15816	3.91	-2.5077895315917e-08
6	16380	4.01	-1.4133405557004e-08
6	16936	4.11	-4.9016790626411e-09
6	17492	4.21	2.7593927143243e-09
6	18048	4.31	8.9940499492513e-09
6	18604	4.41	1.3947598631603e-08
6	19160	4.51	1.7761081494427e-08
6	19716	4.61	2.0570567471623e-08
6	20272	4.71	2.2507151697937e-08
6	20828	4.81	2.3691626438449e-08
6	21384	4.91	2.4239099616352e-08
6	21949	5.01	2.4253310471067e-08
6	22506	5.11	0.0068264526728257
6	23063	5.21	0.074594836732089
6	23620	5.31	0.19005134681258
6	24177	5.41	0.34050272642077
6	24734	5.51	0.51301638947834
6	25291	5.61	0.6902545856434
6	25848	5.71	0.83572672600098
6	26405	5.81	0.95506454902292
6	26962	5.91	1.0529631292492
6	27527	6.01	1.133274063098
6	28084	6.11	1.1991570011418
6	28641	6.21	1.2532039573571
6	29198	6.31	1.2975412860019
6	29755	6.41	1.333913338177
6	30312	6.51	1.3635927249268
6	30869	6.61	1.3702053615898
6	31426	6.71	1.3272611926745
6	31983	6.81	1.2373810921854
6	32540	6.91	1.1040433755532
6	33105	7.01	0.93147092012096
6	33662	7.11	0.72451590565734
6	34219	7.21	0.48854318346834
6	34776	7.31	0.2293132962599
6	35333	7.41	-0.044839398398011
6	35890	7.51	-0.30626147443016
6	36447	7.61	-0.52071863005345
6	37004	7.71	-0.69664819306503
6	37561	7.81	-0.84097171097959
6	38118	7.91	-0.95936726353223
6	38683	8.01	-1.0564928537818
6	39240	8.11	-1.1361696666178
6	39797	8.21	-1.2015324045674
6	40354	8.31	-1.2551526155189
6	40911	8.41	-1.2991398644115
6	41468	8.51	-1.3352247292573
6	42025	8.61	-1.3648268867847
6	42582	8.71	-1.3891109663845
6	43139	8.81	-1.4090323697992
6	43696	8.91	-1.4253748592211
6	44261	9.01	-1.4387813926344
6	44818	9.11	-1.4497794195275
6	45375	9.21	-1.4588016321909
6	45932	9.31	-1.4662029890104
6	46489	9.41	-1.4722746794938
6	47046	9.51	-1.4696249146823
6	47603	9.61	-1.3967850639141
6	48160	9.71	-1.2587757641274
6	48717	9.81	-1.0660952217858
6	49274	9.91	-0.82923335017639
6	49839	10.01	-0.55852907832801
6	50396	10.11	-0.26404116068406
6	50953	10.21	0.03943269874469
6	51510	10.31	0.30182609756224
6	52067	10.41	0.51708007617997
6	52624	10.51	0.69366331158065
6	53181	10.61	0.83852306852847
6	53738	10.71	0.95735852386056
6	54295	10.81	1.0548449876072
6	54852	10.91	1.1348178424026
6	55417	11.01	1.2004234378704
6	55974	11.11	1.2542428765748
6	56531	11.21	1.2983935616166
6	57088	11.31	1.3346125010283
6	57645	11.41	1.3643246463978
6	58202	11.51	1.3886989543376
6	58759	11.61	1.4086943764163
6	59316	11.71	1.4250975869238
6	59873	11.81	1.4385539327762
6	60430	11.91	1.4345627372837
6	60995	12.01	1.3623449188774
6	61552	12.11	1.2299875654499
6	62109	12.21	1.0461448397812
6	62666	12.31	0.81967864249357
6	63223	12.41	0.55952045905059
6	63780	12.51	0.27454262949682
6	64337	12.61	-0.02234164487227
6	64894	12.71	-0.28780548057448
6	65451	12.81	-0.50557828687161
6	66008	12.91	-0.68422783827593
6	66573	13.01	-0.83078269404453
6	67130	13.11	-0.95100872081275
6	67687	13.21	-1.0496359374716
6	68244	13.31	-1.1305446069798
6	68801	13.41	-1.1969178964556
6	69358	13.51	-1.2513671116345
6	69915	13.61	-1.2960344327361
6	70472	13.71	-1.3326771936619
6	71029	13.81	-1.3627370202897
6	71586	13.91	-1.3873965479586
6	72151	14.01	-1.4076259495578
6	72708	14.11	-1.4242211047666
6	73265	14.21	-1.4378349121291
6	73822	14.31	-1.4490029758537
6	74379	14.41	-1.4542593951845
6	74936	14.51	-1.4067454390027
6	75493	14.61	-1.2938574955285
6	76050	14.71	-1.1248409052222
6	76607	14.81	-0.90912582142266
6	77164	14.91	-0.65618298375618
6	77729	15.01	-0.37539052553193
6	78286	15.11	-0.078063005083351
6	78843	15.21	0.20543869668366
6	79400	15.31	0.43800883574043
6	79957	15.41	0.62879735391697
6	80514	15.51	0.78531039043881
6	81071	15.61	0.91370559385808
6	81628	15.71	1.0190343806951
6	82185	15.81	1.1054406719047
6	82742	15.91	1.1763239259967
6	83307	16.01	1.2344728829817
6	83864	16.11	1.2821752809831
6	84421	16.21	1.3213078620836
6	84978	16.31	1.3534102084598
6	85535	16.41	1.3797453137308
6	86092	16.51	1.4013492725667
6	86649	16.61	1.4190720434691
6	87206	16.71	1.4336108884482
6	87763	16.81	1.4455378052084
6	88320	16.91	1.4502949065335
6	88885	17.01	1.3935559567532
6	89442	17.11	1.2733368701447
6	89999	17.21	1.098674244054
6	90556	17.31	0.87879676591527
6	91113	17.41	0.62298329276125
6	91670	17.51	0.34043137853565
6	92227	17.61	0.043031849081743
6	92784	17.71	-0.23417644595263
6	93341	17.81	-0.46158379949546
6	93898	17.91	-0.64813703535336
6	94463	18.01	-0.80117566522588
6	95020	18.11	-0.92672064505699
6	95577	18.21	-1.0297112558188
6	96134	18.31	-1.1141994282603
6	96691	18.41	-1.1835091568827
6	97248	18.51	-1.2403672749226
6	97805	18.61	-1.2870107353905
6	98362	18.71	-1.3252746188858
6	98919	18.81	-1.3566643306586
6	99476	18.91	-1.382414827345
6	100041	19.01	-1.4035392035215
6	100598	19.11	-1.4208685496044
6	101155	19.21	-1.4350846492011
6	101712	19.31	-1.4467468023362
6	102269	19.41	-1.4517201941775
6	102826	19.51	-1.3984004323884
6	103383	19.61	-1.280899381009
6	103940	19.71	-1.1083308503771
6	104497	19.81	-0.88999806036796
6	105054	19.91	-0.63525086466818
6	105619	20.01	-0.35335363991322
6	106176	20.11	-0.055983891306965
6	106733	20.21	0.22355126013309
6	107290	20.31	0.45286744637245
6	107847	20.41	0.64098658988812
6	108404	20.51	0.79530980944469
6	108961	20.61	0.92190860023926
6	109518	20.71	1.0257637030335
6	110075	20.81	1.1109610600446
6	110632	20.91	1.1808525670222
6	111197	21.01	1.2381879459468
6	111754	21.11	1.2852229265704
6	112311	21.21	1.32380799296
6	112868	21.31	1.3554611865732
6	113425	21.41	1.3814278301393
6	113982	21.51	1.402729522043
6	114539	21.61	1.4202043287796
6	115096	21.71	1.4345397567766
6	115653	21.81	1.4462998007627
6	116210	21.91	1.4512038299461
6	116775	22.01	1.3966149622046
6	117332	22.11	1.2781048258542
6	117889	22.21	1.104758616826
6	118446	22.31	0.88585193073989
6	119003	22.41	0.63070830476128
6	119560	22.51	0.3485673438103
6	120117	22.61	0.051185654371366
6	120674	22.71	-0.22748748564538
6	121231	22.81	-0.45609652227974
6	121788	22.91	-0.64363555681837
6	122353	23.01	-0.79748288496262
6	122910	23.11	-0.92369127904597
6	123467	23.21	-1.0272261205628
6	124024	23.31	-1.1121607517783
6	124581	23.41	-1.1818367320963
6	125138	23.51	-1.238995304092
6	125695	23.61	-1.2858852414524
6	126252	23.71	-1.3243513218473
6	126809	23.81	-1.355906905502
6	127366	23.91	-1.3817934749046
6	127931	24.01	-1.403029478104
6	128488	24.11	-1.4204503972248
6	129045	24.21	-1.434741618608
6	129602	24.31	-1.4464653977726
6	130159	24.41	-1.4513952146881
6	130716	24.51	-1.3972773206763
6	131273	24.61	-1.2791416668563
6	131830	24.71	-1.1060840673021
6	132387	24.81	-0.88739036841652
6	132944	24.91	-0.63239387292597
6	133509	25.01	-0.35034337810913
6	134066	25.11	-0.052966136909305
6	134623	25.21	0.2260268698226
6	135180	25.31	0.45489830857264
6	135737	25.41	0.64265260424108
6	136294	25.51	0.79667652148672
6	136851	25.61	0.92302978013947
6	137408	25.71	1.026683461059
6	137965	25.81	1.1117155819772
6	138522	25.91	1.1814715378073
6	139087	26.01	1.2386957175785
6	139644	26.11	1.2856394761656
6	140201	26.21	1.3241497087126
6	140758	26.31	1.3557415125099
6	141315	26.41	1.381657795045
6	141872	26.51	1.4029181733619
6	142429	26.61	1.4203590885685
6	142986	26.71	1.4346667137069
6	143543	26.81	1.4464039496644
6	144100	26.91	1.4513241957726
6	144665	27.01	1.3970315218256
6	145222	27.11	1.2787568961965
6	145779	27.21	1.1055921925461
6	146336	27.31	0.88681945319387
6	146893	27.41	0.63176835684509
6	147450	27.51	0.34968428947479
6	148007	27.61	0.052305397195695
6	148564	27.71	-0.22656890652364
6	149121	27.81	-0.45534296745835
6	149678	27.91	-0.64301737940227
6	150243	28.01	-0.79697576417033
6	150800	28.11	-0.92327526336611
6	151357	28.21	-1.0268848428069
6	151914	28.31	-1.1118807851517
6	152471	28.41	-1.1816070619506
6	153028	28.51	-1.2388068945789
6	153585	28.61	-1.2857306800289
6	154142	28.71	-1.3242245276459
6	154699	28.81	-1.3558028900945
6	155256	28.91	-1.3817081460427
6	155821	29.01	-1.4029594787171
6	156378	29.11	-1.4203929733469
6	156935	29.21	-1.4346945110272
6	157492	29.31	-1.4464267531491
6	158049	29.41	-1.4513505510322
6	158606	29.51	-1.3971227384758
6	159163	29.61	-1.2788996857299
6	159720	29.71	-1.1057747287548
6	160277	29.81	-0.88703132157519
6	160834	29.91	-0.63200048778356
6	161399	30.01	-0.34992887929945
6	161956	30.11	-0.052550599747647
6	162513	30.21	0.2263677550264
6	163070	30.31	0.45517795317025
6	163627	30.41	0.64288201021157
6	164184	30.51	0.7968647142846
6	164741	30.61	0.92318416378134
6	165298	30.71	1.0268101094169
6	165855	30.81	1.1118194777417
6	166412	30.91	1.1815567685211
6	166977	31.01	1.2387656364492
6	167534	31.11	1.2856968339921
6	168091	31.21	1.3241967621074
6	168648	31.31	1.3557801126822
6	169205	31.41	1.3816894606308
6	169762	31.51	1.4029441501705
6	170319	31.61	1.4203803985996
6	170876	31.71	1.4346841953547
6	171433	31.81	1.4464182907037
6	171990	31.91	1.451340770512
6	172555	32.01	1.397088887688
6	173112	32.11	1.2788466960817
6	173669	32.21	1.105706988989
6	174226	32.31	0.88695269654693
6	174783	32.41	0.6319143432556
6	175340	32.51	0.34983811123936
6	175897	32.61	0.052459604302157
6	176454	32.71	-0.22644240298604
6	177011	32.81	-0.45523919049693
6	177568	32.91	-0.64293224614822
6	178133	33.01	-0.7969059252499
6	178690	33.11	-0.92321797112582
6	179247	33.21	-1.0268378432144
6	179804	33.31	-1.1118422291158
6	180361	33.41	-1.181575432572
6	180918	33.51	-1.2387809474717
6	181475	33.61	-1.2857093943634
6	182032	33.71	-1.3242070659867
6	182589	33.81	-1.3557885654517
6	183146	33.91	-1.3816963948457
6	183711	34.01	-1.4029498386424
6	184268	34.11	-1.4203850651278
6	184825	34.21	-1.434688023533
6	185382	34.31	-1.4464214311442
6	185939	34.41	-1.4513444000944
6	186496	34.51	-1.3971014498232
6	187053	34.61	-1.2788663607086
6	187610	34.71	-1.1057321274318
6	188167	34.81	-0.88698187454561
6	188724	34.91	-0.63194631176522
6	189289	35.01	-0.34987179555621
6	189846	35.11	-0.052493373001994
6	190403	35.21	0.22641470089013
6	190960	35.31	0.45521646512974
6	191517	35.41	0.64291360343276
6	192074	35.51	0.79689063173021
6	192631	35.61	0.9232054251143
6	193188	35.71	1.0268275511155
6	193745	35.81	1.1118337860104
6	194302	35.91	1.1815685062846
6	194867	36.01	1.2387752655037
6	195424	36.11	1.2857047331707
6	195981	36.21	1.324203242185
6	196538	36.31	1.3557854286034
6	197095	36.41	1.3816938215378
6	197652	36.51	1.4029477276342
6	198209	36.61	1.4203833333653
6	198766	36.71	1.4346866028841
6	199323	36.81	1.4464202657173
6	199880	36.91	1.4513430531448
6	200445	37.01	1.3970967879747
6	201002	37.11	1.2788590631025
6	201559	37.21	1.1057227984747
6	202116	37.31	0.8869710464964
6	202673	37.41	0.63193444814829
6	203230	37.51	0.34985929519813
6	203787	37.61	0.052480841329228
6	204344	37.71	-0.22642498122742
6	204901	37.81	-0.45522489858705
6	205458	37.91	-0.64292052180406
6	206023	38.01	-0.79689630720416
6	206580	38.11	-0.92321008097898
6	207137	38.21	-1.0268313705456
6	207694	38.31	-1.1118369192733
6	208251	38.41	-1.1815710766513
6	208808	38.51	-1.2387773740993
6	209365	38.61	-1.2857064629529
6	209922	38.71	-1.3242046612092
6	210479	38.81	-1.3557865926966
6	211036	38.91	-1.3816947764997
6	211601	39.01	-1.4029485110349
6	212158	39.11	-1.420383976027
6	212715	39.21	-1.4346871300905
6	213272	39.31	-1.4464206982101
6	213829	39.41	-1.4513435530016
6	214386	39.51	-1.3970985180016
6	214943	39.61	-1.2788617712673
6	215500	39.71	-1.1057262604808
6	216057	39.81	-0.88697506482056
6	216614	39.91	-0.63193885077553
6	217179	40.01	-0.34986393412169
6	217736	40.11	-0.052485491873711
6	218293	40.21	0.22642116616005
6	218850	40.31	0.45522176890245
6	219407	40.41	0.64291795437263
6	219964	40.51	0.79689420101552
6	220521	40.61	0.92320835317068
6	221078	40.71	1.0268299531418
6	221635	40.81	1.1118357565078
6	222192	40.91	1.1815701227786
6	222757	41.01	1.2387765915918
6	223314	41.11	1.2857058210248
6	223871	41.21	1.3242041346043
6	224428	41.31	1.3557861606976
6	224985	41.41	1.3816944221094
6	225542	41.51	1.4029482203117
6	226099	41.61	1.420383737533
6	226656	41.71	1.4346869344426
6	227213	41.81	1.4464205377106
6	227770	41.91	1.4513433675031
6	228335	42.01	1.3970978759829
6	228892	42.11	1.2788607662586
6	229449	42.21	1.1057249757194
6	230006	42.31	0.88697357360701
6	230563	42.41	0.6319372169461
6	231120	42.51	0.3498622126024
6	231677	42.61	0.052483766041789
6	232234	42.71	-0.22642258194381
6	232791	42.81	-0.45522293033819
6	233348	42.91	-0.64291890715467
6	233913	43.01	-0.79689498262923
6	234470	43.11	-0.92320899436622
6	235027	43.21	-1.0268304791456
6	235584	43.31	-1.111836188014
6	236141	43.41	-1.1815704767642
6	236698	43.51	-1.2387768819831
6	237255	43.61	-1.2857060592466
6	237812	43.71	-1.3242043300295
6	238369	43.81	-1.3557863210146
6	238926	43.91	-1.3816945536259
6	239491	44.01	-1.4029483282012
6	240048	44.11	-1.4203838260396
6	240605	44.21	-1.4346870070494
6	241162	44.31	-1.4464205972729
6	241719	44.41	-1.4513434363423
6	242276	44.51	-1.3970981142382
6	242833	44.61	-1.2788611392207
6	243390	44.71	-1.1057254524978
6	243947	44.81	-0.88697412700043
6	244504	44.91	-0.63193782326394
6	245069	45.01	-0.34986285146203
6	245626	45.11	-0.052484406502273
6	246183	45.21	0.22642205654293
6	246740	45.31	0.45522249932652
6	247297	45.41	0.64291855357439
6	247854	45.51	0.7968946925704
6	248411	45.61	0.92320875641683
6	248968	45.71	1.0268302839439
6	249525	45.81	1.1118360278807
6	250082	45.91	1.1815703453994
6	250647	46.01	1.2387767742183
6	251204	46.11	1.285705970842
6	251761	46.21	1.3242042575069
6	252318	46.31	1.3557862615201
6	252875	46.41	1.3816945048191
6	253432	46.51	1.4029482881629
6	253989	46.61	1.4203837931944
6	254546	46.71	1.4346869801042
6	255103	46.81	1.4464205751686
6	255660	46.91	1.4513434107954
6	256225	47.01	1.3970980258208
6	256782	47.11	1.2788610008133
6	257339	47.21	1.1057252755645
6	257896	47.31	0.88697392163581
6	258453	47.41	0.63193759825886
6	259010	47.51	0.34986261438021
6	259567	47.61	0.052484168826084
6	260124	47.71	-0.22642225152048
6	260681	47.81	-0.45522265927609
6	261238	47.91	-0.64291868478925
6	261803	48.01	-0.79689480021266
6	262360	48.11	-0.92320884472166
6	262917	48.21	-1.0268303563844
6	263474	48.31	-1.1118360873073
6	264031	48.41	-1.1815703941497
6	264588	48.51	-1.2387768142112
6	265145	48.61	-1.2857060036499
6	265702	48.71	-1.3242042844208
6	266259	48.81	-1.3557862835995
6	266816	48.91	-1.3816945229319
6	267381	49.01	-1.402948303021
6	267938	49.11	-1.4203838053835
6	268495	49.21	-1.434686990104
6	269052	49.31	-1.4464205833722
6	269609	49.41	-1.4513434202772
6	270166	49.51	-1.3970980586329
6	270723	49.61	-1.278861052177
6	271280	49.71	-1.105725341225
6	271837	49.81	-0.88697399784721
6	272394	49.91	-0.63193768175829
6	272959	50.01	-0.34986270236175
6	273516	50.11	-0.05248425702824
6	274073	50.21	0.22642217916413
6	274630	50.31	0.45522259991877
6	275187	50.41	0.6429186360954
5	232	1.11	36.55
5	788	1.21	36.55
5	1344	1.31	36.55
5	1900	1.41	36.55
5	2456	1.51	36.55
5	3012	1.61	36.55
5	3568	1.71	36.55
5	4124	1.81	36.55
5	4680	1.91	36.55
5	5244	2.01	36.55
5	5800	2.11	36.55
5	6356	2.21	36.55
5	6912	2.31	36.55
5	7468	2.41	36.55
5	8024	2.51	36.55
5	8580	2.61	36.55
5	9136	2.71	36.55
5	9692	2.81	36.55
5	10248	2.91	36.55
5	10812	3.01	36.55
5	11368	3.11	36.55
5	11924	3.21	36.55
5	12480	3.31	36.55
5	13036	3.41	36.55
5	13592	3.51	36.55
5	14148	3.61	36.55
5	14704	3.71	36.55
5	15260	3.81	36.55
5	15816	3.91	36.55
5	16380	4.01	36.55
5	16936	4.11	36.55
5	17492	4.21	36.55
5	18048	4.31	36.55
5	18604	4.41	36.55
5	19160	4.51	36.55
5	19716	4.61	36.55
5	20272	4.71	36.55
5	20828	4.81	36.55
5	21384	4.91	36.55
5	21949	5.01	36.55
5	22506	5.11	36.55
5	23063	5.21	36.55
5	23620	5.31	36.55
5	24177	5.41	36.55
5	24734	5.51	36.55
5	25291	5.61	36.55
5	25848	5.71	36.55
5	26405	5.81	36.55
5	26962	5.91	36.55
5	27527	6.01	36.55
5	28084	6.11	36.55
5	28641	6.21	36.55
5	29198	6.31	36.55
5	29755	6.41	36.55
5	30312	6.51	36.55
5	30869	6.61	36.55
5	31426	6.71	36.55
5	31983	6.81	36.55
5	32540	6.91	36.55
5	33105	7.01	36.55
5	33662	7.11	36.55
5	34219	7.21	36.55
5	34776	7.31	36.55
5	35333	7.41	36.55
5	35890	7.51	36.55
5	36447	7.61	36.55
5	37004	7.71	36.55
5	37561	7.81	36.55
5	38118	7.91	36.55
5	38683	8.01	36.55
5	39240	8.11	36.55
5	39797	8.21	36.55
5	40354	8.31	36.55
5	40911	8.41	36.55
5	41468	8.51	36.55
5	42025	8.61	36.55
5	42582	8.71	36.55
5	43139	8.81	36.55
5	43696	8.91	36.55
5	44261	9.01	36.55
5	44818	9.11	36.55
5	45375	9.21	36.55
5	45932	9.31	36.55
5	46489	9.41	36.55
5	47046	9.51	36.55
5	47603	9.61	36.55
5	48160	9.71	36.55
5	48717	9.81	36.55
5	49274	9.91	36.55
5	49839	10.01	36.55
5	50396	10.11	36.55
5	50953	10.21	36.55
5	51510	10.31	36.55
5	52067	10.41	36.55
5	52624	10.51	36.55
5	53181	10.61	36.55
5	53738	10.71	36.55
5	54295	10.81	36.55
5	54852	10.91	36.55
5	55417	11.01	36.55
5	55974	11.11	36.55
5	56531	11.21	36.55
5	57088	11.31	36.55
5	57645	11.41	36.55
5	58202	11.51	36.55
5	58759	11.61	36.55
5	59316	11.71	36.55
5	59873	11.81	36.55
5	60430	11.91	36.55
5	60995	12.01	36.55
5	61552	12.11	36.55
5	62109	12.21	36.55
5	62666	12.31	36.55
5	63223	12.41	36.55
5	63780	12.51	36.55
5	64337	12.61	36.55
5	64894	12.71	36.55
5	65451	12.81	36.55
5	66008	12.91	36.55
5	66573	13.01	36.55
5	67130	13.11	36.55
5	67687	13.21	36.55
5	68244	13.31	36.55
5	68801	13.41	36.55
5	69358	13.51	36.55
5	69915	13.61	36.55
5	70472	13.71	36.55
5	71029	13.81	36.55
5	71586	13.91	36.55
5	72151	14.01	36.55
5	72708	14.11	36.55
5	73265	14.21	36.55
5	73822	14.31	36.55
5	74379	14.41	36.55
5	74936	14.51	36.55
5	75493	14.61	36.55
5	76050	14.71	36.55
5	76607	14.81	36.55
5	77164	14.91	36.55
5	77729	15.01	36.55
5	78286	15.11	36.55
5	78843	15.21	36.55
5	79400	15.31	36.55
5	79957	15.41	36.55
5	80514	15.51	36.55
5	81071	15.61	36.55
5	81628	15.71	36.55
5	82185	15.81	36.55
5	82742	15.91	36.55
5	83307	16.01	36.55
5	83864	16.11	36.55
5	84421	16.21	36.55
5	84978	16.31	36.55
5	85535	16.41	36.55
5	86092	16.51	36.55
5	86649	16.61	36.55
5	87206	16.71	36.55
5	87763	16.81	36.55
5	88320	16.91	36.55
5	88885	17.01	36.55
5	89442	17.11	36.55
5	89999	17.21	36.55
5	90556	17.31	36.55
5	91113	17.41	36.55
5	91670	17.51	36.55
5	92227	17.61	36.55
5	92784	17.71	36.55
5	93341	17.81	36.55
5	93898	17.91	36.55
5	94463	18.01	36.55
5	95020	18.11	36.55
5	95577	18.21	36.55
5	96134	18.31	36.55
5	96691	18.41	36.55
5	97248	18.51	36.55
5	97805	18.61	36.55
5	98362	18.71	36.55
5	98919	18.81	36.55
5	99476	18.91	36.55
5	100041	19.01	36.55
5	100598	19.11	36.55
5	101155	19.21	36.55
5	101712	19.31	36.55
5	102269	19.41	36.55
5	102826	19.51	36.55
5	103383	19.61	36.55
5	103940	19.71	36.55
5	104497	19.81	36.55
5	105054	19.91	36.55
5	105619	20.01	36.55
5	106176	20.11	36.55
5	106733	20.21	36.55
5	107290	20.31	36.55
5	107847	20.41	36.55
5	108404	20.51	36.55
5	108961	20.61	36.55
5	109518	20.71	36.55
5	110075	20.81	36.55
5	110632	20.91	36.55
5	111197	21.01	36.55
5	111754	21.11	36.55
5	112311	21.21	36.55
5	112868	21.31	36.55
5	113425	21.41	36.55
5	113982	21.51	36.55
5	114539	21.61	36.55
5	115096	21.71	36.55
5	115653	21.81	36.55
5	116210	21.91	36.55
5	116775	22.01	36.55
5	117332	22.11	36.55
5	117889	22.21	36.55
5	118446	22.31	36.55
5	119003	22.41	36.55
5	119560	22.51	36.55
5	120117	22.61	36.55
5	120674	22.71	36.55
5	121231	22.81	36.55
5	121788	22.91	36.55
5	122353	23.01	36.55
5	122910	23.11	36.55
5	123467	23.21	36.55
5	124024	23.31	36.55
5	124581	23.41	36.55
5	125138	23.51	36.55
5	125695	23.61	36.55
5	126252	23.71	36.55
5	126809	23.81	36.55
5	127366	23.91	36.55
5	127931	24.01	36.55
5	128488	24.11	36.55
5	129045	24.21	36.55
5	129602	24.31	36.55
5	130159	24.41	36.55
5	130716	24.51	36.55
5	131273	24.61	36.55
5	131830	24.71	36.55
5	132387	24.81	36.55
5	132944	24.91	36.55
5	133509	25.01	36.55
5	134066	25.11	36.55
5	134623	25.21	36.55
5	135180	25.31	36.55
5	135737	25.41	36.55
5	136294	25.51	36.55
5	136851	25.61	36.55
5	137408	25.71	36.55
5	137965	25.81	36.55
5	138522	25.91	36.55
5	139087	26.01	36.55
5	139644	26.11	36.55
5	140201	26.21	36.55
5	140758	26.31	36.55
5	141315	26.41	36.55
5	141872	26.51	36.55
5	142429	26.61	36.55
5	142986	26.71	36.55
5	143543	26.81	36.55
5	144100	26.91	36.55
5	144665	27.01	36.55
5	145222	27.11	36.55
5	145779	27.21	36.55
5	146336	27.31	36.55
5	146893	27.41	36.55
5	147450	27.51	36.55
5	148007	27.61	36.55
5	148564	27.71	36.55
5	149121	27.81	36.55
5	149678	27.91	36.55
5	150243	28.01	36.55
5	150800	28.11	36.55
5	151357	28.21	36.55
5	151914	28.31	36.55
5	152471	28.41	36.55
5	153028	28.51	36.55
5	153585	28.61	36.55
5	154142	28.71	36.55
5	154699	28.81	36.55
5	155256	28.91	36.55
5	155821	29.01	36.55
5	156378	29.11	36.55
5	156935	29.21	36.55
5	157492	29.31	36.55
5	158049	29.41	36.55
5	158606	29.51	36.55
5	159163	29.61	36.55
5	159720	29.71	36.55
5	160277	29.81	36.55
5	160834	29.91	36.55
5	161399	30.01	36.55
5	161956	30.11	36.55
5	162513	30.21	36.55
5	163070	30.31	36.55
5	163627	30.41	36.55
5	164184	30.51	36.55
5	164741	30.61	36.55
5	165298	30.71	36.55
5	165855	30.81	36.55
5	166412	30.91	36.55
5	166977	31.01	36.55
5	167534	31.11	36.55
5	168091	31.21	36.55
5	168648	31.31	36.55
5	169205	31.41	36.55
5	169762	31.51	36.55
5	170319	31.61	36.55
5	170876	31.71	36.55
5	171433	31.81	36.55
5	171990	31.91	36.55
5	172555	32.01	36.55
5	173112	32.11	36.55
5	173669	32.21	36.55
5	174226	32.31	36.55
5	174783	32.41	36.55
5	175340	32.51	36.55
5	175897	32.61	36.55
5	176454	32.71	36.55
5	177011	32.81	36.55
5	177568	32.91	36.55
5	178133	33.01	36.55
5	178690	33.11	36.55
5	179247	33.21	36.55
5	179804	33.31	36.55
5	180361	33.41	36.55
5	180918	33.51	36.55
5	181475	33.61	36.55
5	182032	33.71	36.55
5	182589	33.81	36.55
5	183146	33.91	36.55
5	183711	34.01	36.55
5	184268	34.11	36.55
5	184825	34.21	36.55
5	185382	34.31	36.55
5	185939	34.41	36.55
5	186496	34.51	36.55
5	187053	34.61	36.55
5	187610	34.71	36.55
5	188167	34.81	36.55
5	188724	34.91	36.55
5	189289	35.01	36.55
5	189846	35.11	36.55
5	190403	35.21	36.55
5	190960	35.31	36.55
5	191517	35.41	36.55
5	192074	35.51	36.55
5	192631	35.61	36.55
5	193188	35.71	36.55
5	193745	35.81	36.55
5	194302	35.91	36.55
5	194867	36.01	36.55
5	195424	36.11	36.55
5	195981	36.21	36.55
5	196538	36.31	36.55
5	197095	36.41	36.55
5	197652	36.51	36.55
5	198209	36.61	36.55
5	198766	36.71	36.55
5	199323	36.81	36.55
5	199880	36.91	36.55
5	200445	37.01	36.55
5	201002	37.11	36.55
5	201559	37.21	36.55
5	202116	37.31	36.55
5	202673	37.41	36.55
5	203230	37.51	36.55
5	203787	37.61	36.55
5	204344	37.71	36.55
5	204901	37.81	36.55
5	205458	37.91	36.55
5	206023	38.01	36.55
5	206580	38.11	36.55
5	207137	38.21	36.55
5	207694	38.31	36.55
5	208251	38.41	36.55
5	208808	38.51	36.55
5	209365	38.61	36.55
5	209922	38.71	36.55
5	210479	38.81	36.55
5	211036	38.91	36.55
5	211601	39.01	36.55
5	212158	39.11	36.55
5	212715	39.21	36.55
5	213272	39.31	36.55
5	213829	39.41	36.55
5	214386	39.51	36.55
5	214943	39.61	36.55
5	215500	39.71	36.55
5	216057	39.81	36.55
5	216614	39.91	36.55
5	217179	40.01	36.55
5	217736	40.11	36.55
5	218293	40.21	36.55
5	218850	40.31	36.55
5	219407	40.41	36.55
5	219964	40.51	36.55
5	220521	40.61	36.55
5	221078	40.71	36.55
5	221635	40.81	36.55
5	222192	40.91	36.55
5	222757	41.01	36.55
5	223314	41.11	36.55
5	223871	41.21	36.55
5	224428	41.31	36.55
5	224985	41.41	36.55
5	225542	41.51	36.55
5	226099	41.61	36.55
5	226656	41.71	36.55
5	227213	41.81	36.55
5	227770	41.91	36.55
5	228335	42.01	36.55
5	228892	42.11	36.55
5	229449	42.21	36.55
5	230006	42.31	36.55
5	230563	42.41	36.55
5	231120	42.51	36.55
5	231677	42.61	36.55
5	232234	42.71	36.55
5	232791	42.81	36.55
5	233348	42.91	36.55
5	233913	43.01	36.55
5	234470	43.11	36.55
5	235027	43.21	36.55
5	235584	43.31	36.55
5	236141	43.41	36.55
5	236698	43.51	36.55
5	237255	43.61	36.55
5	237812	43.71	36.55
5	238369	43.81	36.55
5	238926	43.91	36.55
5	239491	44.01	36.55
5	240048	44.11	36.55
5	240605	44.21	36.55
5	241162	44.31	36.55
5	241719	44.41	36.55
5	242276	44.51	36.55
5	242833	44.61	36.55
5	243390	44.71	36.55
5	243947	44.81	36.55
5	244504	44.91	36.55
5	245069	45.01	36.55
5	245626	45.11	36.55
5	246183	45.21	36.55
5	246740	45.31	36.55
5	247297	45.41	36.55
5	247854	45.51	36.55
5	248411	45.61	36.55
5	248968	45.71	36.55
5	249525	45.81	36.55
5	250082	45.91	36.55
5	250647	46.01	36.55
5	251204	46.11	36.55
5	251761	46.21	36.55
5	252318	46.31	36.55
5	252875	46.41	36.55
5	253432	46.51	36.55
5	253989	46.61	36.55
5	254546	46.71	36.55
5	255103	46.81	36.55
5	255660	46.91	36.55
5	256225	47.01	36.55
5	256782	47.11	36.55
5	257339	47.21	36.55
5	257896	47.31	36.55
5	258453	47.41	36.55
5	259010	47.51	36.55
5	259567	47.61	36.55
5	260124	47.71	36.55
5	260681	47.81	36.55
5	261238	47.91	36.55
5	261803	48.01	36.55
5	262360	48.11	36.55
5	262917	48.21	36.55
5	263474	48.31	36.55
5	264031	48.41	36.55
5	264588	48.51	36.55
5	265145	48.61	36.55
5	265702	48.71	36.55
5	266259	48.81	36.55
5	266816	48.91	36.55
5	267381	49.01	36.55
5	267938	49.11	36.55
5	268495	49.21	36.55
5	269052	49.31	36.55
5	269609	49.41	36.55
5	270166	49.51	36.55
5	270723	49.61	36.55
5	271280	49.71	36.55
5	271837	49.81	36.55
5	272394	49.91	36.55
5	272959	50.01	36.55
5	273516	50.11	36.55
5	274073	50.21	36.55
5	274630	50.31	36.55
5	275187	50.41	36.55
4	232	1.11	140.05297775242
4	788	1.21	142.83075561321
4	1344	1.31	145.60853347128
4	1900	1.41	148.38631132568
4	2456	1.51	151.1640891757
4	3012	1.61	153.94186702083
4	3568	1.71	156.71964486074
4	4124	1.81	159.49742269525
4	4680	1.91	162.27520052431
4	5244	2.01	165.05297834799
4	5800	2.11	167.83075616643
4	6356	2.21	170.60853397983
4	6912	2.31	173.38631178847
4	7468	2.41	176.16408959265
4	8024	2.51	178.9418673927
4	8580	2.61	181.71964518895
4	9136	2.71	184.49742298176
4	9692	2.81	187.27520077148
4	10248	2.91	190.05297855844
4	10812	3.01	192.83075634299
4	11368	3.11	195.60853412543
4	11924	3.21	198.38631190605
4	12480	3.31	201.16408968514
4	13036	3.41	203.94186746294
4	13592	3.51	206.71964523968
4	14148	3.61	209.49742301558
4	14704	3.71	212.27520079082
4	15260	3.81	215.05297856556
4	15816	3.91	217.83075633995
4	16380	4.01	220.6085341141
4	16936	4.11	223.38631188814
4	17492	4.21	226.16408966214
4	18048	4.31	228.94186743619
4	18604	4.41	231.71964521033
4	19160	4.51	234.49742298462
4	19716	4.61	237.27520075909
4	20272	4.71	240.05297853378
4	20828	4.81	242.83075630869
4	21384	4.91	245.60853408383
4	21949	5.01	248.38631185923
4	22506	5.11	251.16409100014
4	23063	5.21	253.94209664301
4	23620	5.31	256.72110237948
4	24177	5.41	259.5023328372
4	24734	5.51	262.28733799987
4	25291	5.61	265.0778527299
4	25848	5.71	267.87556251178
4	26405	5.81	270.6818693859
4	26962	5.91	273.49792364555
4	27527	6.01	276.32466893183
4	28084	6.11	279.16287935913
4	28641	6.21	282.01318997089
4	29198	6.31	284.8761217239
4	29755	6.41	287.75210198417
4	30312	6.51	290.64148130902
4	30869	6.61	293.54451744836
4	31426	6.71	296.46116396925
4	31983	6.81	299.39089435514
4	32540	6.91	302.33271982971
4	33105	7.01	305.28522568014
4	33662	7.11	308.24661479195
4	34219	7.21	311.21475723917
4	34776	7.31	314.18724476246
4	35333	7.41	317.16144942487
4	35890	7.51	320.13465829913
4	36447	7.61	323.10437357889
4	37004	7.71	326.06852811884
4	37561	7.81	329.02542613985
4	38118	7.91	331.97367651236
4	38683	8.01	334.91213802564
4	39240	8.11	337.83987448939
4	39797	8.21	340.75611790148
4	40354	8.31	343.66023823269
4	40911	8.41	346.5517186396
4	41468	8.51	349.4301351306
4	42025	8.61	352.2951398849
4	42582	8.71	355.14644756828
4	43139	8.81	357.98382410734
4	43696	8.91	360.80707748032
4	44261	9.01	363.61605016253
4	44818	9.11	366.41061292883
4	45375	9.21	369.19065976962
4	45932	9.31	371.95610372008
4	46489	9.41	374.70687343881
4	47046	9.51	377.44291266377
4	47603	9.61	380.16441669535
4	48160	9.71	382.87224685487
4	48717	9.81	385.56789490473
4	49274	9.91	388.25337795798
4	49839	10.01	390.93113385412
4	50396	10.11	393.60391830999
4	50953	10.21	396.27470408485
4	51510	10.31	398.94641939261
4	52067	10.41	401.62158554242
4	52624	10.51	404.30227736014
4	53181	10.61	406.99019692564
4	53738	10.71	409.68674053725
4	54295	10.81	412.39305364592
4	54852	10.91	415.11007592039
4	55417	11.01	417.83857821633
4	55974	11.11	420.57919290387
4	56531	11.21	423.33243874675
4	57088	11.31	426.09874131196
4	57645	11.41	428.87844971263
4	58202	11.51	431.67185034312
4	58759	11.61	434.47917814658
4	59316	11.71	437.30062585821
4	59873	11.81	440.13635158799
4	60430	11.91	442.98647024179
4	60995	12.01	445.85077678984
4	61552	12.11	448.72842591616
4	62109	12.21	451.61798851943
4	62666	12.31	454.51753870901
4	63223	12.41	457.42474259615
4	63780	12.51	460.33694751726
4	64337	12.61	463.25127126414
4	64894	12.71	466.16482508766
4	65451	12.81	469.07506321338
4	66008	12.91	471.97988653655
4	66573	13.01	474.87757306016
4	67130	13.11	477.76671014686
4	67687	13.21	480.64613894205
4	68244	13.31	483.51490878128
4	68801	13.41	486.37223978862
4	69358	13.51	489.21749219417
4	69915	13.61	492.05014116376
4	70472	13.71	494.8697561506
4	71029	13.81	497.67598395634
4	71586	13.91	500.46853483533
4	72151	14.01	503.2471710952
4	72708	14.11	506.01169774544
4	73265	14.21	508.7619548259
4	73822	14.31	511.49781111356
4	74379	14.41	514.21915974087
4	74936	14.51	516.92606724567
4	75493	14.61	519.61914893402
4	76050	14.71	522.2996485405
4	76607	14.81	524.96935188248
4	77164	14.91	527.63049244415
4	77729	15.01	530.28565682761
4	78286	15.11	532.93769095122
4	78843	15.21	535.58953768876
4	79400	15.31	538.24390619343
4	79957	15.41	540.90303820099
4	80514	15.51	543.56877271554
4	81071	15.61	546.24261836098
4	81628	15.71	548.92581273436
4	82185	15.81	551.6193710963
4	82742	15.91	554.32412631416
4	83307	16.01	557.04076162922
4	83864	16.11	559.76983753734
4	84421	16.21	562.51181384031
4	84978	16.31	565.26706773577
4	85535	16.41	568.03590865717
4	86092	16.51	570.81859044769
4	86649	16.61	573.61532134716
4	87206	16.71	576.42627218478
4	87763	16.81	579.25158309999
4	88320	16.91	582.09136804147
4	88885	17.01	584.94553050522
4	89442	17.11	587.813372121
4	89999	17.21	590.69357922755
4	90556	17.31	593.58431252804
4	91113	17.41	596.48329951043
4	91670	17.51	599.38792710014
4	92227	17.61	602.29533382976
4	92784	17.71	605.20259405422
4	93341	17.81	608.10705550934
4	93898	17.91	611.00652622329
4	94463	18.01	613.89920801571
4	95020	18.11	616.78362575239
4	95577	18.21	619.65856930949
4	96134	18.31	622.52304596398
4	96691	18.41	625.37624133721
4	97248	18.51	628.21748735503
4	97805	18.61	631.04623596395
4	98362	18.71	633.86203756923
4	98919	18.81	636.66452334659
4	99476	18.91	639.45339073164
4	100041	19.01	642.22839151621
4	100598	19.11	644.98932208316
4	101155	19.21	647.7360153955
4	101712	19.31	650.46833442472
4	102269	19.41	653.18616767844
4	102826	19.51	655.88960032259
4	103383	19.61	658.57929989414
4	103940	19.71	661.25655412726
4	104497	19.81	663.92318248167
4	105054	19.91	666.58144298402
4	105619	20.01	669.23393887354
4	106176	20.11	671.88352582849
4	106733	20.21	674.53313584083
4	107290	20.31	677.18544220671
4	107847	20.41	679.84265529711
4	108404	20.51	682.50658838615
4	108961	20.61	685.17872899014
4	109518	20.71	687.86029739057
4	110075	20.81	690.55229464328
4	110632	20.91	693.25554196273
4	111197	21.01	695.97071303081
4	111754	21.11	698.69836050131
4	112311	21.21	701.43893774282
4	112868	21.31	704.1928166755
4	113425	21.41	706.96030240342
4	113982	21.51	709.74164521818
4	114539	21.61	712.53705044608
4	115096	21.71	715.34668652618
4	115653	21.81	718.1706916372
4	116210	21.91	721.00917818515
4	116775	22.01	723.86205687781
4	117332	22.11	726.72864875547
4	117889	22.21	729.60765645789
4	118446	22.31	732.49725315802
4	119003	22.41	735.3951754469
4	119560	22.51	738.29881642796
4	120117	22.61	741.20531826672
4	120674	22.71	744.11175131585
4	121231	22.81	747.01545007031
4	121788	22.91	749.91421097528
4	122353	23.01	752.80622634832
4	122910	23.11	755.69001326021
4	123467	23.21	758.56435519247
4	124024	23.31	761.42825417626
4	124581	23.41	764.28089152952
4	125138	23.51	767.12159564782
4	125695	23.61	769.9498155816
4	126252	23.71	772.76509936034
4	126809	23.81	775.56707621078
4	127366	23.91	778.35544196971
4	127931	24.01	781.12994711736
4	128488	24.11	783.89038696061
4	129045	24.21	786.63659357981
4	129602	24.31	789.36842922235
4	130159	24.41	792.08578182068
4	130716	24.51	794.78873913535
4	131273	24.61	797.47797588702
4	131830	24.71	800.15478586356
4	132387	24.81	802.82099315788
4	132944	24.91	805.47885918142
4	133509	25.01	808.13098947334
4	134066	25.11	810.78024106782
4	134623	25.21	813.42954448206
4	135180	25.31	816.08156811214
4	135737	25.41	818.73851804218
4	136294	25.51	821.40220402949
4	136851	25.61	824.07411070546
4	137408	25.71	826.75545598488
4	137965	25.81	829.44723898209
4	138522	25.91	832.15027931886
4	139087	26.01	834.8652493705
4	139644	26.11	837.59270071895
4	140201	26.21	840.33308585352
4	140758	26.31	843.08677597304
4	141315	26.41	845.85407558985
4	141872	26.51	848.63523451013
4	142429	26.61	851.43045766195
4	142986	26.71	854.2399131577
4	143543	26.81	857.06373890811
4	144100	26.91	859.90204710631
4	144665	27.01	862.75474942334
4	145222	27.11	865.62116956541
4	145779	27.21	868.50001241894
4	146336	27.31	871.38945287637
4	146893	27.41	874.28722878496
4	147450	27.51	877.19073410182
4	148007	27.61	880.09711149577
4	148564	27.71	883.00343077241
4	149121	27.81	885.90702460854
4	149678	27.91	888.80568785867
4	150243	28.01	891.69761153546
4	150800	28.11	894.58131163921
4	151357	28.21	897.4555707733
4	151914	28.31	900.31939024848
4	152471	28.41	903.17195079172
4	153028	28.51	906.01258031378
4	153585	28.61	908.8407274674
4	154142	28.71	911.65593995579
4	154699	28.81	914.45784673804
4	155256	28.91	917.24614343139
4	155821	29.01	920.02058033594
4	156378	29.11	922.78095261081
4	156935	29.21	925.52709221513
4	157492	29.31	928.25886129686
4	158049	29.41	930.97614770947
4	158606	29.51	933.67903957098
4	159163	29.61	936.36821259138
4	159720	29.71	939.04496139228
4	160277	29.81	941.7111107047
4	160834	29.91	944.36892240628
4	161399	30.01	947.02100235298
4	161956	30.11	949.67020776575
4	162513	30.21	952.3194689588
4	163070	30.31	954.97145365347
4	163627	30.41	957.62836734357
4	164184	30.51	960.29201930219
4	164741	30.61	962.96389376344
4	165298	30.71	965.64520831625
4	165855	30.81	968.33696180761
4	166412	30.91	971.03997363997
4	166977	31.01	973.75491600874
4	167534	31.11	976.48234034826
4	168091	31.21	979.22269902678
4	168648	31.31	981.97636314379
4	169205	31.41	984.74363713016
4	169762	31.51	987.52477072523
4	170319	31.61	990.31996880222
4	170876	31.71	993.12939942854
4	171433	31.81	995.95320047803
4	171990	31.91	998.79148411451
4	172555	32.01	1001.6441621417
4	173112	32.11	1004.5105586329
4	173669	32.21	1007.3893787839
4	174226	32.31	1010.2787977241
4	174783	32.41	1013.1765534736
4	175340	32.51	1016.0800401072
4	175897	32.61	1018.986400363
4	176454	32.71	1021.8927039712
4	177011	32.81	1024.7962833583
4	177568	32.91	1027.6949331597
4	178133	33.01	1030.5868442083
4	178690	33.11	1033.4705323571
4	179247	33.21	1036.3447800884
4	179804	33.31	1039.2085886139
4	180361	33.41	1042.0611385791
4	180918	33.51	1044.9017578279
4	181475	33.61	1047.7298949584
4	182032	33.71	1050.5450976289
4	182589	33.81	1053.3469947615
4	183146	33.91	1056.1352819434
4	183711	34.01	1058.9097094496
4	184268	34.11	1061.6700724192
4	184825	34.21	1064.4162027944
4	185382	34.31	1067.1479627095
4	185939	34.41	1069.8652400072
4	186496	34.51	1072.5681228546
4	187053	34.61	1075.2572870981
4	187610	34.71	1077.9340274741
4	188167	34.81	1080.6001688014
4	188724	34.91	1083.2579730219
4	189289	35.01	1085.9100460351
4	189846	35.11	1088.5592450879
4	190403	35.21	1091.2085004663
4	190960	35.31	1093.8604797989
4	191517	35.41	1096.5173884981
4	192074	35.51	1099.1810357704
4	192631	35.61	1101.8529057951
4	193188	35.71	1104.5342161163
4	193745	35.81	1107.2259655442
4	194302	35.91	1109.928973451
4	194867	36.01	1112.6439120074
4	195424	36.11	1115.3713326273
4	195981	36.21	1118.1116876624
4	196538	36.31	1120.8653481984
4	197095	36.41	1123.632618655
4	197652	36.51	1126.4137487623
4	198209	36.61	1129.2089433861
4	198766	36.71	1132.0183705874
4	199323	36.81	1134.8421682352
4	199880	36.91	1137.6804484891
4	200445	37.01	1140.5331231711
4	201002	37.11	1143.3995164051
4	201559	37.21	1146.2783334297
4	202116	37.31	1149.1677494065
4	202673	37.41	1152.0655023798
4	203230	37.51	1154.9689864404
4	203787	37.61	1157.875344336
4	204344	37.71	1160.7816457864
4	204901	37.81	1163.6852231835
4	205458	37.91	1166.5838711328
4	206023	38.01	1169.4757804423
4	206580	38.11	1172.3594669447
4	207137	38.21	1175.2337131056
4	207694	38.31	1178.0975201231
4	208251	38.41	1180.9500686315
4	208808	38.51	1183.7906864656
4	209365	38.61	1186.6188222157
4	209922	38.71	1189.4340235341
4	210479	38.81	1192.2359193378
4	211036	38.91	1195.0242052097
4	211601	39.01	1197.7986314217
4	212158	39.11	1200.5589931097
4	212715	39.21	1203.3051222139
4	213272	39.31	1206.0368808667
4	213829	39.41	1208.754156909
4	214386	39.51	1211.4570385151
4	214943	39.61	1214.1462015499
4	215500	39.71	1216.8229407655
4	216057	39.81	1219.4890809931
4	216614	39.91	1222.1468841834
4	217179	40.01	1224.7989562418
4	217736	40.11	1227.4481544186
4	218293	40.21	1230.0974089963
4	218850	40.31	1232.7493875904
4	219407	40.41	1235.4062956023
4	219964	40.51	1238.0699422292
4	220521	40.61	1240.7418116429
4	221078	40.71	1243.4231213814
4	221635	40.81	1246.1148702497
4	222192	40.91	1248.8178776159
4	222757	41.01	1251.5328156472
4	223314	41.11	1254.2602357548
4	223871	41.21	1257.0005902881
4	224428	41.31	1259.754250331
4	224985	41.41	1262.5215203015
4	225542	41.51	1265.3026499285
4	226099	41.61	1268.0978440766
4	226656	41.71	1270.9072708063
4	227213	41.81	1273.7310679856
4	227770	41.91	1276.5693477737
4	228335	42.01	1279.422021995
4	228892	42.11	1282.2884147805
4	229449	42.21	1285.1672313744
4	230006	42.31	1288.0566469432
4	230563	42.41	1290.9543995342
4	231120	42.51	1293.8578832404
4	231677	42.61	1296.7642408109
4	232234	42.71	1299.6705419641
4	232791	42.81	1302.5741190873
4	233348	42.91	1305.4727667814
4	233913	43.01	1308.3646758514
4	234470	43.11	1311.2483621271
4	235027	43.21	1314.1226080718
4	235584	43.31	1316.9864148816
4	236141	43.41	1319.8389631894
4	236698	43.51	1322.6795808286
4	237255	43.61	1325.5077163886
4	237812	43.71	1328.3229175208
4	238369	43.81	1331.1248131415
4	238926	43.91	1333.913098833
4	239491	44.01	1336.6875248667
4	240048	44.11	1339.4478863783
4	240605	44.21	1342.1940153074
4	241162	44.31	1344.9257737863
4	241719	44.41	1347.6430496558
4	242276	44.51	1350.3459310909
4	242833	44.61	1353.0350939592
4	243390	44.71	1355.7118330151
4	243947	44.81	1358.3779730913
4	244504	44.91	1361.0357761396
4	245069	45.01	1363.6878480665
4	245626	45.11	1366.3370461227
4	246183	45.21	1368.9863005901
4	246740	45.31	1371.6382790826
4	247297	45.41	1374.2951869998
4	247854	45.51	1376.9588335378
4	248411	45.61	1379.6307028674
4	248968	45.71	1382.3120125256
4	249525	45.81	1385.0037613168
4	250082	45.91	1387.7067686085
4	250647	46.01	1390.4217065675
4	251204	46.11	1393.1491266046
4	251761	46.21	1395.8894810688
4	252318	46.31	1398.6431410437
4	252875	46.41	1401.4104109473
4	253432	46.51	1404.1915405082
4	253989	46.61	1406.9867345908
4	254546	46.71	1409.7961612556
4	255103	46.81	1412.6199583703
4	255660	46.91	1415.4582380942
4	256225	47.01	1418.3109122521
4	256782	47.11	1421.1773049758
4	257339	47.21	1424.0561215105
4	257896	47.31	1426.945537023
4	258453	47.41	1429.8432895613
4	259010	47.51	1432.7467732188
4	259567	47.61	1435.6531307445
4	260124	47.71	1438.5594318568
4	260681	47.81	1441.4630089422
4	261238	47.91	1444.3616566013
4	261803	48.01	1447.2535656383
4	262360	48.11	1450.1372518827
4	262917	48.21	1453.0114977976
4	263474	48.31	1455.8753045788
4	264031	48.41	1458.727852859
4	264588	48.51	1461.5684704713
4	265145	48.61	1464.3966060052
4	265702	48.71	1467.2118071117
4	266259	48.81	1470.0137027072
4	266816	48.91	1472.8019883739
4	267381	49.01	1475.5764143831
4	267938	49.11	1478.3367758703
4	268495	49.21	1481.0829047753
4	269052	49.31	1483.8146632303
4	269609	49.41	1486.531939076
4	270166	49.51	1489.2348204876
4	270723	49.61	1491.9239833329
4	271280	49.71	1494.6007223668
4	271837	49.81	1497.2668624221
4	272394	49.91	1499.9246654509
4	272959	50.01	1502.5767373597
4	273516	50.11	1505.2259353993
4	274073	50.21	1507.8751898515
4	274630	50.31	1510.5271683299
4	275187	50.41	1513.1840762341
3	232	1.11	27.777778619612
3	788	1.21	27.777778599967
3	1344	1.31	27.777778569105
3	1900	1.41	27.777778529595
3	2456	1.51	27.777778483698
3	3012	1.61	27.777778433385
3	3568	1.71	27.777778380352
3	4124	1.81	27.777778326039
3	4680	1.91	27.77777827165
3	5244	2.01	27.777778218173
3	5800	2.11	27.777778166406
3	6356	2.21	27.777778116967
3	6912	2.31	27.777778070327
3	7468	2.41	27.777778026819
3	8024	2.51	27.77777798666
3	8580	2.61	27.77777794997
3	9136	2.71	27.777777916782
3	9692	2.81	27.777777887063
3	10248	2.91	27.777777860724
3	10812	3.01	27.777777837628
3	11368	3.11	27.777777817609
3	11924	3.21	27.777777800471
3	12480	3.31	27.777777786005
3	13036	3.41	27.777777773991
3	13592	3.51	27.777777764203
3	14148	3.61	27.777777756416
3	14704	3.71	27.777777750412
3	15260	3.81	27.777777745977
3	15816	3.91	27.77777774291
3	16380	4.01	27.777777741018
3	16936	4.11	27.777777740126
3	17492	4.21	27.77777774007
3	18048	4.31	27.7777777407
3	18604	4.41	27.777777741882
3	19160	4.51	27.777777743495
3	19716	4.61	27.777777745434
3	20272	4.71	27.777777747604
3	20828	4.81	27.777777749925
3	21384	4.91	27.777777752329
3	21949	5.01	27.777777754758
3	22506	5.11	27.777846021452
3	23063	5.21	27.782059596653
3	23620	5.31	27.795775862036
3	24177	5.41	27.823056285431
3	24734	5.51	27.866721940626
3	25291	5.61	27.928063782047
3	25848	5.71	28.005327711868
3	26405	5.81	28.095658800357
3	26962	5.91	28.196709510244
3	27527	6.01	28.30655404332
3	28084	6.11	28.423612574297
3	28641	6.21	28.54658909619
3	29198	6.31	28.674420431867
3	29755	6.41	28.80623440578
3	30312	6.51	28.941313946553
3	30869	6.61	29.078388981218
3	31426	6.71	29.213351897492
3	31983	6.81	29.341385131305
3	32540	6.91	29.457981732945
3	33105	7.01	29.559024895864
3	33662	7.11	29.640856051762
3	34219	7.21	29.700331349918
3	34776	7.31	29.734866440411
3	35333	7.41	29.742492528104
3	35890	7.51	29.72320356612
3	36447	7.61	29.680432143932
3	37004	7.71	29.618396925437
3	37561	7.81	29.540558684394
3	38118	7.91	29.449756460671
3	38683	8.01	29.348319255796
3	39240	8.11	29.238157662213
3	39797	8.21	29.120839031188
3	40354	8.31	28.997649136664
3	40911	8.41	28.86964276111
3	41468	8.51	28.737685193533
3	42025	8.61	28.602486272297
3	42582	8.71	28.464628312097
3	43139	8.81	28.324589013804
3	43696	8.91	28.182760258515
3	44261	9.01	28.039463525222
3	44818	9.11	27.894962538668
3	45375	9.21	27.749473644999
3	45932	9.31	27.603174323409
3	46489	9.41	27.456210168651
3	47046	9.51	27.308798307138
3	47603	9.61	27.165456941051
3	48160	9.71	27.033088438825
3	48717	9.81	26.917629526736
3	49274	9.91	26.823966096352
3	49839	10.01	26.755942052805
3	50396	10.11	26.716381687291
3	50953	10.21	26.707072901132
3	51510	10.31	26.725876201723
3	52067	10.41	26.768249212414
3	52624	10.51	26.829957594714
3	53181	10.61	26.90752771624
3	53738	10.71	26.998109988574
3	54295	10.81	27.099366756701
3	54852	10.91	27.209380329303
3	55417	11.01	27.326577531569
3	55974	11.11	27.449667812217
3	56531	11.21	27.577592469696
3	57088	11.31	27.709482999991
3	57645	11.41	27.844626927306
3	58202	11.51	27.982439773336
3	58759	11.61	28.122442062297
3	59316	11.71	28.264240457043
3	59873	11.81	28.407512284116
3	60430	11.91	28.5515861915
3	60995	12.01	28.691427297144
3	61552	12.11	28.820647386679
3	62109	12.21	28.933709262078
3	62666	12.31	29.025954034973
3	63223	12.41	29.093614170539
3	63780	12.51	29.133813231597
3	64337	12.61	29.144595455085
3	64894	12.71	29.127327372936
3	65451	12.81	29.086213776084
3	66008	12.91	29.025538551786
3	66573	13.01	28.948815979671
3	67130	13.11	28.858928993054
3	67687	13.21	28.758242601384
3	68244	13.31	28.648696936139
3	68801	13.41	28.531883580877
3	69358	13.51	28.409108188466
3	69915	13.61	28.281441849017
3	70472	13.71	28.14976322948
3	71029	13.81	28.014793142794
3	71586	13.91	27.877122906629
3	72151	14.01	27.737237607429
3	72708	14.11	27.595535185033
3	73265	14.21	27.452342088714
3	73822	14.31	27.307926120577
3	74379	14.41	27.162546024449
3	74936	14.51	27.019330871672
3	75493	14.61	26.884559196285
3	76050	14.71	26.764258967301
3	76607	14.81	26.663521929862
3	77164	14.91	26.586493202078
3	77729	15.01	26.536374688625
3	78286	15.11	26.515419708568
3	78843	15.21	26.523668857685
3	79400	15.31	26.557383788157
3	79957	15.41	26.611989529068
3	80514	15.51	26.683733010807
3	81071	15.61	26.769535409097
3	81628	15.71	26.866871015679
3	82185	15.81	26.973667870074
3	82742	15.91	27.088226243028
3	83307	16.01	27.209151764536
3	83864	16.11	27.335300565535
3	84421	16.21	27.465734274985
3	84978	16.31	27.599683101797
3	85535	16.41	27.736515549161
3	86092	16.51	27.875713569743
3	86649	16.61	28.016852184292
3	87206	16.71	28.159582761803
3	87763	16.81	28.303619303423
3	88320	16.91	28.448676617794
3	88885	17.01	28.590971447913
3	89442	17.11	28.724006207991
3	89999	17.21	28.841930784337
3	90556	17.31	28.939810791426
3	91113	17.41	29.013638834762
3	91670	17.51	29.060332154734
3	92227	17.61	29.077746642843
3	92784	17.71	29.066350790361
3	93341	17.81	29.030054467132
3	93898	17.91	28.973331085061
3	94463	18.01	28.899850399997
3	95020	18.11	28.812622889912
3	95577	18.21	28.714118195293
3	96134	18.31	28.606362281514
3	96691	18.41	28.491017145825
3	97248	18.51	28.369446204845
3	97805	18.61	28.242767935079
3	98362	18.71	28.111899876827
3	98919	18.81	27.977594732713
3	99476	18.91	27.840469981056
3	100041	19.01	27.701032169144
3	100598	19.11	27.559696842186
3	101155	19.21	27.416804891984
3	101712	19.31	27.272635968552
3	102269	19.41	27.127465418657
3	102826	19.51	26.984833896344
3	103383	19.61	26.851159734065
3	103940	19.71	26.732358896103
3	104497	19.81	26.633424036685
3	105054	19.91	26.558413554113
3	105619	20.01	26.510454337265
3	106176	20.11	26.4917309481
3	106733	20.21	26.50196337238
3	107290	20.31	26.53730527926
3	107847	20.41	26.593245707503
3	108404	20.51	26.666084097724
3	108961	20.61	26.752784702327
3	109518	20.71	26.85085715093
3	110075	20.81	26.958258472424
3	110632	20.91	27.073312718935
3	111197	21.01	27.194645029473
3	111754	21.11	27.321127539161
3	112311	21.21	27.451835005966
3	112868	21.31	27.58600840916
3	113425	21.41	27.723025087377
3	113982	21.51	27.862374241425
3	114539	21.61	28.003636838057
3	115096	21.71	28.146469124058
3	115653	21.81	28.290589102065
3	116210	21.91	28.435718002991
3	116775	22.01	28.578225822974
3	117332	22.11	28.711663912643
3	117889	22.21	28.83014072939
3	118446	22.31	28.928685230703
3	119003	22.41	29.003257937223
3	119560	22.51	29.050748330675
3	120117	22.61	29.068986857173
3	120674	22.71	29.058323427182
3	121231	22.81	29.022627945499
3	121788	22.91	28.966397462768
3	122353	23.01	28.89332112684
3	122910	23.11	28.806425323882
3	123467	23.21	28.70819274464
3	124024	23.31	28.600660060247
3	124581	23.41	28.485498050406
3	125138	23.51	28.364077336405
3	125695	23.61	28.237522305085
3	126252	23.71	28.106755345282
3	126809	23.81	27.97253313711
3	127366	23.91	27.835476421811
3	127931	24.01	27.696094423411
3	128488	24.11	27.554804882971
3	129045	24.21	27.411950493662
3	129602	24.31	27.267812383245
3	130159	24.41	27.122668052051
3	130716	24.51	26.980114349492
3	131273	24.61	26.846588675637
3	131830	24.71	26.727991635756
3	132387	24.81	26.629302292308
3	132944	24.91	26.554567145367
3	133509	25.01	26.506902788277
3	134066	25.11	26.488484344384
3	134623	25.21	26.498987841018
3	135180	25.31	26.534552121643
3	135737	25.41	26.590674973809
3	136294	25.51	26.663663015186
3	136851	25.61	26.75048638586
3	137408	25.71	26.8486595454
3	137965	25.81	26.956143484941
3	138522	25.91	27.071265507027
3	139087	26.01	27.192653417141
3	139644	26.11	27.319181537848
3	140201	26.21	27.449926421574
3	140758	26.31	27.584130519676
3	141315	26.41	27.721172378408
3	141872	26.51	27.86054218925
3	142429	26.61	28.001821731647
3	142986	26.71	28.144667919078
3	143543	26.81	28.288799301099
3	144100	26.91	28.433937906563
3	144665	27.01	28.576474582405
3	145222	27.11	28.709967753931
3	145779	27.21	28.828520179047
3	146336	27.31	28.927155771518
3	146893	27.41	29.001830636677
3	147450	27.51	29.049430435655
3	148007	27.61	29.067782111948
3	148564	27.71	29.057219263808
3	149121	27.81	29.021606294275
3	149678	27.91	28.965443500247
3	150243	28.01	28.892422692631
3	150800	28.11	28.805572442229
3	151357	28.21	28.707377231949
3	151914	28.31	28.599875203121
3	152471	28.41	28.48473834152
3	153028	28.51	28.363338257835
3	153585	28.61	28.23680015056
3	154142	28.71	28.106047074368
3	154699	28.81	27.971836255593
3	155256	28.91	27.834788883566
3	155821	29.01	27.695414549904
3	156378	29.11	27.554131297218
3	156935	29.21	27.411282066058
3	157492	29.31	27.267148187119
3	158049	29.41	27.122007456828
3	158606	29.51	26.979464462325
3	159163	29.61	26.84595922909
3	159720	29.71	26.727390247301
3	160277	29.81	26.628734707679
3	160834	29.91	26.554037471766
3	161399	30.01	26.506413715074
3	161956	30.11	26.488037261118
3	162513	30.21	26.498578083731
3	163070	30.31	26.534172984659
3	163627	30.41	26.590320956139
3	164184	30.51	26.663329604102
3	164741	30.61	26.750169879354
3	165298	30.71	26.848356906536
3	165855	30.81	26.955852222374
3	166412	30.91	27.070983576984
3	166977	31.01	27.19237914302
3	167534	31.11	27.318913544249
3	168091	31.21	27.449663580191
3	168648	31.31	27.583871904903
3	169205	31.41	27.720917230929
3	169762	31.51	27.860289886159
3	170319	31.61	28.001571761945
3	170876	31.71	28.144419863567
3	171433	31.81	28.288552815892
3	171990	31.91	28.433692757653
3	172555	32.01	28.576233407281
3	173112	32.11	28.709734164377
3	173669	32.21	28.828297001933
3	174226	32.31	28.926945139104
3	174783	32.41	29.001634073159
3	175340	32.51	29.049248939068
3	175897	32.61	29.067616197954
3	176454	32.71	29.057067201598
3	177011	32.81	29.021465595353
3	177568	32.91	28.965312123179
3	178133	33.01	28.89229896273
3	178690	33.11	28.805454985668
3	179247	33.21	28.707264921712
3	179804	33.31	28.599767114663
3	180361	33.41	28.484633716391
3	180918	33.51	28.363236473841
3	181475	33.61	28.236700697287
3	182032	33.71	28.105949533098
3	182589	33.81	27.971740282831
3	183146	33.91	27.834694197528
3	183711	34.01	27.695320919427
3	184268	34.11	27.554038532669
3	184825	34.21	27.411190011872
3	185382	34.31	27.267056715677
3	185939	34.41	27.12191648129
3	186496	34.51	26.979374961472
3	187053	34.61	26.845872543266
3	187610	34.71	26.727307425566
3	188167	34.81	26.628656541322
3	188724	34.91	26.553964526421
3	189289	35.01	26.506346361114
3	189846	35.11	26.487975689908
3	190403	35.21	26.498521652962
3	190960	35.31	26.534120770842
3	191517	35.41	26.590272201691
3	192074	35.51	26.663283687543
3	192631	35.61	26.750126290851
3	193188	35.71	26.848315227851
3	193745	35.81	26.955812110404
3	194302	35.91	27.070944750266
3	194867	36.01	27.192341370657
3	195424	36.11	27.318876636823
3	195981	36.21	27.449627382316
3	196538	36.31	27.583836289107
3	197095	36.41	27.72088209264
3	197652	36.51	27.860255139592
3	198209	36.61	28.001537336726
3	198766	36.71	28.144385701967
3	199323	36.81	28.28851887055
3	199880	36.91	28.433658996343
3	200445	37.01	28.576200193231
3	201002	37.11	28.709701994993
3	201559	37.21	28.828266266525
3	202116	37.31	28.926916131321
3	202673	37.41	29.00160700291
3	203230	37.51	29.0492239438
3	203787	37.61	29.067593348683
3	204344	37.71	29.057046259961
3	204901	37.81	29.02144621864
3	205458	37.91	28.965294030249
3	206023	38.01	28.892281922949
3	206580	38.11	28.805438809836
3	207137	38.21	28.70724945462
3	207694	38.31	28.599752228983
3	208251	38.41	28.484619307673
3	208808	38.51	28.363222456397
3	209365	38.61	28.236687000824
3	209922	38.71	28.105936099952
3	210479	38.81	27.971727065696
3	211036	38.91	27.834681157597
3	211601	39.01	27.695308024865
3	212158	39.11	27.554025757361
3	212715	39.21	27.411177334393
3	213272	39.31	27.267044118453
3	213829	39.41	27.121903952361
3	214386	39.51	26.979362635632
3	214943	39.61	26.845860605106
3	215500	39.71	26.727296019558
3	216057	39.81	26.628645776441
3	216614	39.91	26.553954480566
3	217179	40.01	26.506337085291
3	217736	40.11	26.487967210471
3	218293	40.21	26.498513881454
3	218850	40.31	26.534113580083
3	219407	40.41	26.590265487348
3	219964	40.51	26.663277364026
3	220521	40.61	26.750120287949
3	221078	40.71	26.848309487963
3	221635	40.81	26.95580658628
3	222192	40.91	27.070939403145
3	222757	41.01	27.192336168738
3	223314	41.11	27.318871554021
3	223871	41.21	27.449622397231
3	224428	41.31	27.583831384185
3	224985	41.41	27.720877253479
3	225542	41.51	27.860250354378
3	226099	41.61	28.001532595767
3	226656	41.71	28.144380997312
3	227213	41.81	28.288514195678
3	227770	41.91	28.433654346815
3	228335	42.01	28.57619561907
3	228892	42.11	28.709697564702
3	229449	42.21	28.828262033717
3	230006	42.31	28.926912136438
3	230563	42.41	29.001603274859
3	231120	42.51	29.04922050151
3	231677	42.61	29.067590201935
3	232234	42.71	29.057043375928
3	232791	42.81	29.021443550125
3	233348	42.91	28.965291538533
3	233913	43.01	28.89227957627
3	234470	43.11	28.805436582139
3	235027	43.21	28.707247324528
3	235584	43.31	28.599750178963
3	236141	43.41	28.484617323338
3	236698	43.51	28.363220525947
3	237255	43.61	28.236685114579
3	237812	43.71	28.105934249971
3	238369	43.81	27.971725245463
3	238926	43.91	27.834679361769
3	239491	44.01	27.695306249056
3	240048	44.11	27.554023997975
3	240605	44.21	27.41117558848
3	241162	44.31	27.267042383592
3	241719	44.41	27.121902226905
3	242276	44.51	26.979360938146
3	242833	44.61	26.845858961009
3	243390	44.71	26.727294448749
3	243947	44.81	26.628644293927
3	244504	44.91	26.553953097073
3	245069	45.01	26.506335807846
3	245626	45.11	26.487966042703
3	246183	45.21	26.49851281118
3	246740	45.31	26.534112589788
3	247297	45.41	26.590264562664
3	247854	45.51	26.663276493166
3	248411	45.61	26.750119461243
3	248968	45.71	26.848308697479
3	249525	45.81	26.955805825511
3	250082	45.91	27.070938666752
3	250647	46.01	27.192335452342
3	251204	46.11	27.31887085403
3	251761	46.21	27.449621710698
3	252318	46.31	27.583830708691
3	252875	46.41	27.720876587041
3	253432	46.51	27.86024969537
3	253989	46.61	28.001531942854
3	254546	46.71	28.144380349399
3	255103	46.81	28.288513551866
3	255660	46.91	28.433653706494
3	256225	47.01	28.576194989128
3	256782	47.11	28.709696954573
3	257339	47.21	28.828261450785
3	257896	47.31	28.926911586273
3	258453	47.41	29.001602761442
3	259010	47.51	29.049220027447
3	259567	47.61	29.067589768573
3	260124	47.71	29.057042978746
3	260681	47.81	29.021443182624
3	261238	47.91	28.965291195381
3	261803	48.01	28.892279253092
3	262360	48.11	28.805436275346
3	262917	48.21	28.707247031177
3	263474	48.31	28.599749896639
3	264031	48.41	28.48461705006
3	264588	48.51	28.363220260091
3	265145	48.61	28.23668485481
3	265702	48.71	28.105933995196
3	266259	48.81	27.971724994785
3	266816	48.91	27.834679114451
3	267381	49.01	27.695306004496
3	267938	49.11	27.554023755677
3	268495	49.21	27.411175348037
3	269052	49.31	27.267042144671
3	269609	49.41	27.121901989279
3	270166	49.51	26.979360704372
3	270723	49.61	26.845858734588
3	271280	49.71	26.727294232421
3	271837	49.81	26.628644089758
3	272394	49.91	26.553952906542
3	272959	50.01	26.506335631919
3	273516	50.11	26.48796588188
3	274073	50.21	26.498512663784
3	274630	50.31	26.534112453407
3	275187	50.41	26.590264435318
1	232	1.11	0
1	788	1.21	0
1	1344	1.31	0
1	1900	1.41	0
1	2456	1.51	0
1	3012	1.61	0
1	3568	1.71	0
1	4124	1.81	0
1	4680	1.91	0
1	5244	2.01	0
1	5800	2.11	0
1	6356	2.21	0
1	6912	2.31	0
1	7468	2.41	0
1	8024	2.51	0
1	8580	2.61	0
1	9136	2.71	0
1	9692	2.81	0
1	10248	2.91	0
1	10812	3.01	0
1	11368	3.11	0
1	11924	3.21	0
1	12480	3.31	0
1	13036	3.41	0
1	13592	3.51	0
1	14148	3.61	0
1	14704	3.71	0
1	15260	3.81	0
1	15816	3.91	0
1	16380	4.01	0
1	16936	4.11	0
1	17492	4.21	0
1	18048	4.31	0
1	18604	4.41	0
1	19160	4.51	0
1	19716	4.61	0
1	20272	4.71	0
1	20828	4.81	0
1	21384	4.91	0
1	21949	5.01	0
1	22506	5.11	0
1	23063	5.21	0
1	23620	5.31	0
1	24177	5.41	0
1	24734	5.51	0
1	25291	5.61	0
1	25848	5.71	0
1	26405	5.81	0
1	26962	5.91	0
1	27527	6.01	0
1	28084	6.11	0
1	28641	6.21	0
1	29198	6.31	0
1	29755	6.41	0
1	30312	6.51	0
1	30869	6.61	0
1	31426	6.71	0
1	31983	6.81	0
1	32540	6.91	0
1	33105	7.01	0
1	33662	7.11	0
1	34219	7.21	0
1	34776	7.31	0
1	35333	7.41	0
1	35890	7.51	0
1	36447	7.61	0
1	37004	7.71	0
1	37561	7.81	0
1	38118	7.91	0
1	38683	8.01	0
1	39240	8.11	0
1	39797	8.21	0
1	40354	8.31	0
1	40911	8.41	0
1	41468	8.51	0
1	42025	8.61	0
1	42582	8.71	0
1	43139	8.81	0
1	43696	8.91	0
1	44261	9.01	0
1	44818	9.11	0
1	45375	9.21	0
1	45932	9.31	0
1	46489	9.41	0
1	47046	9.51	0
1	47603	9.61	0
1	48160	9.71	0
1	48717	9.81	0
1	49274	9.91	0
1	49839	10.01	0
1	50396	10.11	0
1	50953	10.21	0
1	51510	10.31	0
1	52067	10.41	0
1	52624	10.51	0
1	53181	10.61	0
1	53738	10.71	0
1	54295	10.81	0
1	54852	10.91	0
[...]
35	273692	50.141817853659	0.099998593982
35	274249	50.241816444769	0.09999859111
35	274806	50.341815033041	0.099998588272
35	275363	50.441826618525	0.100011585484
36	964	1.241823300899	0.099998953993
36	1520	1.341822254892	0.099998953993
36	2076	1.441821208885	0.099998953993
36	2632	1.541820162878	0.099998953993
36	3188	1.641819116871	0.099998953993
36	3744	1.741818070864	0.099998953993
36	4300	1.841817024857	0.099998953993
36	4856	1.94181597885	0.099998953993
36	5420	2.041814932843	0.099998953993
36	5976	2.141826886836	0.100011953993
36	6532	2.241825840829	0.099998953993
36	7088	2.341824794822	0.099998953993
36	7644	2.441823748815	0.099998953993
36	8200	2.541822702808	0.099998953993
36	8756	2.641821656801	0.099998953993
36	9312	2.741820610794	0.099998953993
36	9868	2.841819564787	0.099998953993
36	10424	2.94181851878	0.099998953993
36	10988	3.041817472773	0.099998953993
36	11544	3.141816426766	0.099998953993
36	12100	3.241815380759	0.099998953993
36	12656	3.341827334752	0.100011953993
36	13212	3.441826288745	0.099998953993
36	13768	3.541825242738	0.099998953993
36	14324	3.641824196731	0.099998953993
36	14880	3.741823150724	0.099998953993
36	15436	3.841822104717	0.099998953993
36	15992	3.94182105871	0.099998953993
36	16556	4.041820012703	0.099998953993
36	17112	4.141818966696	0.099998953993
36	17668	4.241817920689	0.099998953993
36	18224	4.341816874682	0.099998953993
36	18780	4.441815828675	0.099998953993
36	19336	4.541814782668	0.099998953993
36	19892	4.641826736661	0.100011953993
36	20448	4.741825690654	0.099998953993
36	21004	4.841824644647	0.099998953993
36	21560	4.94182359864	0.099998953993
36	22125	5.041822552633	0.099998953993
36	22682	5.141821506626	0.099998953993
36	23239	5.241820460621	0.099998953995
36	23796	5.341819414624	0.099998954003
36	24353	5.441818368643	0.099998954019
36	24910	5.54181732269	0.099998954047
36	25467	5.641816276782	0.099998954092
36	26024	5.741815230934	0.099998954152
36	26581	5.84182718516	0.100011954226
36	27138	5.941826139474	0.099998954314
36	27703	6.041825093886	0.099998954412
36	28260	6.141824048406	0.09999895452
36	28817	6.241823003039	0.099998954633
36	29374	6.341821957795	0.099998954756
36	29931	6.441820912676	0.099998954881
36	30488	6.541819867689	0.099998955013
36	31045	6.64181882284	0.099998955151
36	31602	6.74181777813	0.09999895529
36	32159	6.841816733557	0.099998955427
36	32716	6.941815689117	0.09999895556
36	33281	7.041814644799	0.099998955682
36	33838	7.141826600595	0.100011955796
36	34395	7.241825556482	0.099998955887
36	34952	7.341824512444	0.099998955962
36	35509	7.441823468459	0.099998956015
36	36066	7.541822424501	0.099998956042
36	36623	7.64182138055	0.099998956049
36	37180	7.741820336585	0.099998956035
36	37737	7.841819292587	0.099998956002
36	38294	7.941818248544	0.099998955957
36	38859	8.041817204441	0.099998955897
36	39416	8.141816160268	0.099998955827
36	39973	8.241815116016	0.099998955748
36	40530	8.341827071676	0.10001195566
36	41087	8.441826027244	0.099998955568
36	41644	8.541824982709	0.099998955465
36	42201	8.641823938068	0.099998955359
36	42758	8.741822893315	0.099998955247
36	43315	8.841821848445	0.09999895513
36	43872	8.941820803454	0.099998955009
36	44437	9.041819758339	0.099998954885
36	44994	9.141818713092	0.099998954753
36	45551	9.241817667714	0.099998954622
36	46108	9.341816622197	0.099998954483
36	46665	9.44181557654	0.099998954343
36	47222	9.541827530736	0.100011954196
36	47779	9.641826484787	0.099998954051
36	48336	9.741825438696	0.099998953909
36	48893	9.841824392472	0.099998953776
36	49450	9.941823346125	0.099998953653
36	50015	10.041822299675	0.09999895355
36	50572	10.141821253144	0.099998953469
36	51129	10.241820206557	0.099998953413
36	51686	10.341819159936	0.099998953379
36	52243	10.441818113307	0.099998953371
36	52800	10.541817066689	0.099998953382
36	53357	10.641816020102	0.099998953413
36	53914	10.741814973558	0.099998953456
36	54471	10.841826927069	0.100011953511
36	55028	10.941825880646	0.099998953577
36	55593	11.041824834296	0.09999895365
36	56150	11.14182378803	0.099998953734
36	56707	11.241822741852	0.099998953822
36	57264	11.341821695771	0.099998953919
36	57821	11.44182064979	0.099998954019
36	58378	11.541819603916	0.099998954126
36	58935	11.641818558153	0.099998954237
36	59492	11.741817512503	0.09999895435
36	60049	11.841816466974	0.099998954471
36	60606	11.941815421569	0.099998954595
36	61171	12.041827376288	0.100011954719
36	61728	12.141826331129	0.099998954841
36	62285	12.241825286083	0.099998954954
36	62842	12.341824241139	0.099998955056
36	63399	12.441823196278	0.099998955139
36	63956	12.541822151479	0.099998955201
36	64513	12.64182110672	0.099998955241
36	65070	12.741820061974	0.099998955254
36	65627	12.841819017219	0.099998955245
36	66184	12.941817972436	0.099998955217
36	66749	13.041816927608	0.099998955172
36	67306	13.141815882716	0.099998955108
36	67863	13.241814837752	0.099998955036
36	68420	13.341826792704	0.100011954952
36	68977	13.441825747565	0.099998954861
36	69534	13.541824702326	0.099998954761
36	70091	13.641823656981	0.099998954655
36	70648	13.741822611523	0.099998954542
36	71205	13.841821565949	0.099998954426
36	71762	13.94182052025	0.099998954301
36	72327	14.041819474424	0.099998954174
36	72884	14.141818428467	0.099998954043
36	73441	14.241817382374	0.099998953907
36	73998	14.34181633614	0.099998953766
36	74555	14.441815289764	0.099998953624
36	75112	14.541827243244	0.10001195348
36	75669	14.641826196581	0.099998953337
36	76226	14.741825149781	0.0999989532
36	76783	14.841824102856	0.099998953075
36	77340	14.941823055821	0.099998952965
36	77905	15.041822008696	0.099998952875
36	78462	15.141820961506	0.09999895281
36	79019	15.241819914274	0.099998952768
36	79576	15.341818867026	0.099998952752
36	80133	15.441817819785	0.099998952759
36	80690	15.541816772566	0.099998952781
36	81247	15.641815725386	0.09999895282
36	81804	15.741814678257	0.099998952871
36	82361	15.841826631193	0.100011952936
36	82918	15.941825584203	0.09999895301
36	83483	16.041824537295	0.099998953092
36	84040	16.141823490474	0.099998953179
36	84597	16.241822443748	0.099998953274
36	85154	16.341821397123	0.099998953375
36	85711	16.441820350606	0.099998953483
36	86268	16.541819304198	0.099998953592
36	86825	16.641818257908	0.09999895371
36	87382	16.741817211736	0.099998953828
36	87939	16.84181616569	0.099998953954
36	88496	16.941815119772	0.099998954082
36	89061	17.041827073984	0.100011954212
36	89618	17.141826028325	0.099998954341
36	90175	17.241824982786	0.099998954461
36	90732	17.341823937358	0.099998954572
36	91289	17.441822892024	0.099998954666
36	91846	17.541821846764	0.09999895474
36	92403	17.641820801554	0.09999895479
36	92960	17.741819756368	0.099998954814
36	93517	17.841818711184	0.099998954816
36	94074	17.941817665981	0.099998954797
36	94639	18.041816620742	0.099998954761
36	95196	18.14181557545	0.099998954708
36	95753	18.241827530094	0.100011954644
36	96310	18.34182648466	0.099998954566
36	96867	18.441825439143	0.099998954483
36	97424	18.541824393533	0.09999895439
36	97981	18.641823347825	0.099998954292
36	98538	18.741822302013	0.099998954188
36	99095	18.841821256089	0.099998954076
36	99652	18.941820210047	0.099998953958
36	100217	19.041819163884	0.099998953837
36	100774	19.141818117597	0.099998953713
36	101331	19.241817071182	0.099998953585
36	101888	19.341816024633	0.099998953451
36	102445	19.441814977948	0.099998953315
36	103002	19.541826931124	0.100011953176
36	103559	19.641825884164	0.09999895304
36	104116	19.741824837074	0.09999895291
36	104673	19.841823789866	0.099998952792
36	105230	19.941822742556	0.09999895269
36	105795	20.041821695165	0.099998952609
36	106352	20.141820647715	0.09999895255
36	106909	20.241819600232	0.099998952517
36	107466	20.34181855274	0.099998952508
36	108023	20.441817505263	0.099998952523
36	108580	20.541816457813	0.09999895255
36	109137	20.64181541041	0.099998952597
36	109694	20.741827363065	0.100011952655
36	110251	20.841826315792	0.099998952727
36	110808	20.941825268598	0.099998952806
36	111373	21.041824221492	0.099998952894
36	111930	21.14182317448	0.099998952988
36	112487	21.241822127569	0.099998953089
36	113044	21.341821080763	0.099998953194
36	113601	21.44182003407	0.099998953307
36	114158	21.541818987493	0.099998953423
36	114715	21.641817941039	0.099998953546
36	115272	21.741816894709	0.09999895367
36	115829	21.841815848509	0.0999989538
36	116386	21.941814802443	0.099998953934
36	116951	22.041826756509	0.100011954066
36	117508	22.141825710711	0.099998954202
36	118065	22.24182466504	0.099998954329
36	118622	22.341823619484	0.099998954444
36	119179	22.441822574027	0.099998954543
36	119736	22.541821528648	0.099998954621
36	120293	22.641820483326	0.099998954678
36	120850	22.741819438035	0.099998954709
36	121407	22.84181839275	0.099998954715
36	121964	22.94181734745	0.0999989547
36	122529	23.041816302118	0.099998954668
36	123086	23.141815256738	0.09999895462
36	123643	23.2418272113	0.100011954562
36	124200	23.341826165789	0.099998954489
36	124757	23.441825120197	0.099998954408
36	125314	23.541824074517	0.09999895432
36	125871	23.641823028744	0.099998954227
36	126428	23.741821982868	0.099998954124
36	126985	23.841820936885	0.099998954017
36	127542	23.94181989079	0.099998953905
36	128107	24.041818844578	0.099998953788
36	128664	24.141817798244	0.099998953666
36	129221	24.241816751786	0.099998953542
36	129778	24.341815705197	0.099998953411
36	130335	24.441814658477	0.09999895328
36	130892	24.54182661162	0.100011953143
36	131449	24.641825564632	0.099998953012
36	132006	24.741824517516	0.099998952884
36	132563	24.841823470285	0.099998952769
36	133120	24.941822422958	0.099998952673
36	133685	25.04182137555	0.099998952592
36	134242	25.141820328089	0.099998952539
36	134799	25.241819280598	0.099998952509
36	135356	25.341818233099	0.099998952501
36	135913	25.441817185619	0.09999895252
36	136470	25.54181613817	0.099998952551
36	137027	25.64181509077	0.0999989526
36	137584	25.741827043434	0.100011952664
36	138141	25.841825996169	0.099998952735
36	138698	25.941824948986	0.099998952817
36	139263	26.041823901894	0.099998952908
36	139820	26.141822854898	0.099998953004
36	140377	26.241821808003	0.099998953105
36	140934	26.341820761218	0.099998953215
36	141491	26.441819714549	0.099998953331
36	142048	26.541818667997	0.099998953448
36	142605	26.641817621571	0.099998953574
36	143162	26.741816575272	0.099998953701
36	143719	26.841815529104	0.099998953832
36	144276	26.94182748307	0.100011953966
36	144841	27.041826437173	0.099998954103
36	145398	27.141825391414	0.099998954241
36	145955	27.241824345783	0.099998954369
36	146512	27.34182330027	0.099998954487
36	147069	27.441822254858	0.099998954588
36	147626	27.541821209526	0.099998954668
36	148183	27.64182016425	0.099998954724
36	148740	27.741819119008	0.099998954758
36	149297	27.841818073775	0.099998954767
36	149854	27.94181702853	0.099998954755
36	150419	28.041815983251	0.099998954721
36	150976	28.141814937927	0.099998954676
36	151533	28.241826892545	0.100011954618
36	152090	28.341825847094	0.099998954549
36	152647	28.441824801565	0.099998954471
36	153204	28.541823755947	0.099998954382
36	153761	28.641822710236	0.099998954289
36	154318	28.741821664425	0.099998954189
36	154875	28.841820618509	0.099998954084
36	155432	28.941819572479	0.09999895397
36	155997	29.041818526336	0.099998953857
36	156554	29.141817480073	0.099998953737
36	157111	29.241816433686	0.099998953613
36	157668	29.34181538717	0.099998953484
36	158225	29.441827340521	0.100011953351
36	158782	29.541826293739	0.099998953218
36	159339	29.641825246825	0.099998953086
36	159896	29.741824199786	0.099998952961
36	160453	29.841823152632	0.099998952846
36	161010	29.94182210538	0.099998952748
36	161575	30.041821058052	0.099998952672
36	162132	30.14182001067	0.099998952618
36	162689	30.241818963265	0.099998952595
36	163246	30.341817915865	0.0999989526
36	163803	30.441816868507	0.099998952642
36	164360	30.541815821223	0.099998952716
36	164917	30.641814774047	0.099998952824
36	165474	30.741826727018	0.100011952971
36	166031	30.841825680176	0.099998953158
36	166588	30.941824633556	0.09999895338
36	167153	31.041823587199	0.099998953643
36	167710	31.141822541147	0.099998953948
36	168267	31.241821495437	0.09999895429
36	168824	31.341820450112	0.099998954675
36	169381	31.441819405213	0.099998955101
36	169938	31.54181836078	0.099998955567
36	170495	31.641817316859	0.099998956079
36	171052	31.74181627349	0.099998956631
36	171609	31.841815230718	0.099998957228
36	172166	31.941827188585	0.100011957867
36	172731	32.041826147131	0.099998958546
36	173288	32.141825106396	0.099998959265
36	173845	32.241824066402	0.099998960006
36	174402	32.341823027164	0.099998960762
36	174959	32.441821988681	0.099998961517
36	175516	32.54182095093	0.099998962249
36	176073	32.641819913875	0.099998962945
36	176630	32.741818877457	0.099998963582
36	177187	32.841817841601	0.099998964144
36	177744	32.941816806223	0.099998964622
36	178309	33.041815771221	0.099998964998
36	178866	33.141814736488	0.099998965267
36	179423	33.241826701914	0.100011965426
36	179980	33.341825667375	0.099998965461
36	180537	33.441824632749	0.099998965374
36	181094	33.54182359791	0.099998965161
36	181651	33.641822562723	0.099998964813
36	182208	33.741821527057	0.099998964334
36	182765	33.841820490779	0.099998963722
36	183322	33.941819453753	0.099998962974
36	183887	34.04181841584	0.099998962087
36	184444	34.141817376908	0.099998961068
36	185001	34.241816336814	0.099998959906
36	185558	34.34181529542	0.099998958606
36	186115	34.441827252591	0.100011957171
36	186672	34.541826208185	0.099998955594
36	187229	34.641825162077	0.099998953892
36	187786	34.741824114145	0.099998952068
36	188343	34.841823064282	0.099998950137
36	188900	34.941822012398	0.099998948116
36	189465	35.041820958423	0.099998946025
36	190022	35.141819902302	0.099998943879
36	190579	35.241818844004	0.099998941702
36	191136	35.341817783516	0.099998939512
36	191693	35.441816720832	0.099998937316
36	192250	35.541815655965	0.099998935133
36	192807	35.641827588934	0.100011932969
36	193364	35.741826519765	0.099998930831
36	193921	35.841825448497	0.099998928732
36	194478	35.941824375166	0.099998926669
36	195043	36.041823299817	0.099998924651
36	195600	36.1418222225	0.099998922683
36	196157	36.241821143267	0.099998920767
36	196714	36.341820062173	0.099998918906
36	197271	36.441818979273	0.0999989171
36	197828	36.541817894625	0.099998915352
36	198385	36.641816808292	0.099998913667
36	198942	36.741815720337	0.099998912045
36	199499	36.841814630822	0.099998910485
36	200056	36.941826539813	0.100011908991
36	200621	37.041825447374	0.099998907561
36	201178	37.141824353562	0.099998906188
36	201735	37.241823258432	0.09999890487
36	202292	37.341822162019	0.099998903587
36	202849	37.441821064345	0.099998902326
36	203406	37.541819965416	0.099998901071
36	203963	37.64181886522	0.099998899804
36	204520	37.741817763725	0.099998898505
36	205077	37.841816660886	0.099998897161
36	205634	37.941815556642	0.099998895756
36	206199	38.04182745092	0.100011894278
36	206756	38.141826343644	0.099998892724
36	207313	38.241825234727	0.099998891083
36	207870	38.341824124079	0.099998889352
36	208427	38.441823011605	0.099998887526
36	208984	38.541821897204	0.099998885599
36	209541	38.641820780775	0.099998883571
36	210098	38.741819662215	0.09999888144
36	210655	38.841818541421	0.099998879206
36	211212	38.941817418288	0.099998876867
36	211777	39.041816292704	0.099998874416
36	212334	39.141815164564	0.09999887186
36	212891	39.241827033761	0.100011869197
36	213448	39.341825900183	0.099998866422
36	214005	39.441824763724	0.099998863541
36	214562	39.54182362428	0.099998860556
36	215119	39.641822481748	0.099998857468
36	215676	39.74182133604	0.099998854292
36	216233	39.841820187078	0.099998851038
36	216790	39.941819034802	0.099998847724
36	217355	40.04181787917	0.099998844368
36	217912	40.141816720159	0.099998840989
36	218469	40.241815557766	0.099998837607
36	219026	40.341827392005	0.100011834239
36	219583	40.441826222904	0.099998830899
36	220140	40.541825050505	0.099998827601
36	220697	40.641823874854	0.099998824349
36	221254	40.74182269601	0.099998821156
36	221811	40.841821514037	0.099998818027
36	222368	40.941820329001	0.099998814964
36	222933	41.041819140978	0.099998811977
36	223490	41.141817950043	0.099998809065
36	224047	41.241816756276	0.099998806233
36	224604	41.34181555976	0.099998803484
36	225161	41.441827360579	0.100011800819
36	225718	41.541826158821	0.099998798242
36	226275	41.641824954571	0.09999879575
36	226832	41.741823747922	0.099998793351
36	227389	41.841822538962	0.09999879104
36	227946	41.941821327782	0.09999878882
36	228511	42.041820114474	0.099998786692
36	229068	42.141818899125	0.099998784651
36	229625	42.24181768181	0.099998782685
36	230182	42.341816462589	0.099998780779
36	230739	42.441815241515	0.099998778926
36	231296	42.541827018617	0.100011777102
36	231853	42.641825793905	0.099998775288
36	232410	42.741824567375	0.09999877347
36	232967	42.841823339002	0.099998771627
36	233524	42.941822108752	0.09999876975
36	234089	43.041820876574	0.099998767822
36	234646	43.141819642416	0.099998765842
36	235203	43.241818406213	0.099998763797
36	235760	43.341817167899	0.099998761686
36	236317	43.441815927399	0.0999987595
36	236874	43.541814684638	0.099998757239
36	237431	43.641826439535	0.100011754897
36	237988	43.741825192008	0.099998752473
36	238545	43.841823941973	0.099998749965
36	239102	43.941822689349	0.099998747376
36	239667	44.041821434046	0.099998744697
36	240224	44.141820175977	0.099998741931
36	240781	44.241818915053	0.099998739076
36	241338	44.341817651187	0.099998736134
36	241895	44.441816384291	0.099998733104
36	242452	44.541815114278	0.099998729987
36	243009	44.641826841064	0.100011726786
36	243566	44.741825564579	0.099998723515
36	244123	44.841824284763	0.099998720184
36	244680	44.941823001578	0.099998716815
36	245245	45.041821714994	0.099998713416
36	245802	45.141820425007	0.099998710013
36	246359	45.241819131634	0.099998706627
36	246916	45.341817834905	0.099998703271
36	247473	45.441816534863	0.099998699958
36	248030	45.541815231565	0.099998696702
36	248587	45.641826925075	0.10001169351
36	249144	45.741825615466	0.099998690391
36	249701	45.841824302818	0.099998687352
36	250258	45.941822987213	0.099998684395
36	250823	46.041821668739	0.099998681526
36	251380	46.141820347489	0.09999867875
36	251937	46.241819023556	0.099998676067
36	252494	46.341817697038	0.099998673482
36	253051	46.441816368029	0.099998670991
36	253608	46.541815036632	0.099998668603
36	254165	46.641826702948	0.100011666316
36	254722	46.741825367076	0.099998664128
36	255279	46.841824029123	0.099998662047
36	255836	46.941822689189	0.099998660066
36	256401	47.041821347381	0.099998658192
36	256958	47.141820003794	0.099998656413
36	257515	47.241818658516	0.099998654722
36	258072	47.34181731162	0.099998653104
36	258629	47.441815963167	0.099998651547
36	259186	47.541814613196	0.099998650029
36	259743	47.641826261734	0.100011648538
36	260300	47.74182490878	0.099998647046
36	260857	47.841823554323	0.099998645543
36	261414	47.941822198337	0.099998644014
36	261979	48.041820840783	0.099998642446
36	262536	48.141819481616	0.099998640833
36	263093	48.241818120781	0.099998639165
36	263650	48.341816758221	0.09999863744
36	264207	48.441815393868	0.099998635647
36	264764	48.541827027657	0.100011633789
36	265321	48.641825659515	0.099998631858
36	265878	48.741824289369	0.099998629854
36	266435	48.841822917145	0.099998627776
36	266992	48.94182154276	0.099998625615
36	267557	49.04182016614	0.09999862338
36	268114	49.141818787204	0.099998621064
36	268671	49.241817405869	0.099998618665
36	269228	49.341816022055	0.099998616186
36	269785	49.441814635678	0.099998613623
36	270342	49.541826246658	0.10001161098
36	270899	49.64182485492	0.099998608262
36	271456	49.741823460396	0.099998605476
36	272013	49.841822063037	0.099998602641
36	272570	49.941820662803	0.099998599766
36	273135	50.041819259677	0.099998596874
36	273692	50.141817853659	0.099998593982
36	274249	50.241816444769	0.09999859111
36	274806	50.341815033041	0.099998588272
36	275363	50.441826618525	0.100011585484
