version 2
run SinusoidalJammingDetail-494-20170801-17:54:09-22854
attr CACCSpacing 7
attr attackAcc -30
attr attackPos 7
attr attackSpeed 150
attr attackStart 31
attr attacker 1
attr beaconInterval 0.1
attr configname SinusoidalJammingDetail
attr controller 1
attr datetime 20170801-17:54:09
attr experiment SinusoidalJammingDetail
attr fakeAcc "(1 == 4)"
attr fakePos "(1 == 2)"
attr fakeSpeed "(1 == 3)"
attr inifile omnetpp_494.ini
attr iterationvars "$leaderSpeed=120, $controller=1, $CACCSpacing=7, $sController=\"CACC\", $attacker=1, $attackStart=31, $attackSpeed=150, $attackPos=7, $attackAcc=-30, $0=7, $1=0, $nCars=8, $platoonSize=8, $nLanes=1, $beaconInterval=0.1, $priority=2, $packetSize=200, $ploegH=0.5, $leaderHeadway=1.2, $fakeSpeed=(1 == 3), $fakeAcc=(1 == 4), $fakePos=(1 == 2)"
attr iterationvarsf leaderSpeed=120,controller=1,CACCSpacing=7,sController=CACC,attacker=1,attackStart=31,attackSpeed=150,attackPos=7,attackAcc=-30,7,0,nCars=8,platoonSize=8,nLanes=1,beaconInterval=0.1,priority=2,packetSize=200,ploegH=0.5,leaderHeadway=1.2,fakeSpeed=(1_==_3),fakeAcc=(1_==_4),fakePos=(1_==_2)-
attr leaderHeadway 1.2
attr leaderSpeed 120
attr measurement "$leaderSpeed=120, $controller=1, $CACCSpacing=7, $sController=\"CACC\", $attacker=1, $attackStart=31, $attackSpeed=150, $attackPos=7, $attackAcc=-30, $0=7, $1=0, $nCars=8, $platoonSize=8, $nLanes=1, $beaconInterval=0.1, $priority=2, $packetSize=200, $ploegH=0.5, $leaderHeadway=1.2, $fakeSpeed=(1 == 3), $fakeAcc=(1 == 4), $fakePos=(1 == 2)"
attr nCars 8
attr nLanes 1
attr network scenario
attr packetSize 200
attr platoonSize 8
attr ploegH 0.5
attr priority 2
attr processid 22854
attr repetition 4
attr replication #4
attr resultdir results
attr runnumber 494
attr sController "\"CACC\""
attr seedset 4
param **.coreDebug false
param **.debug false
param **.headway 0.1s
param **.numberOfCars 8
param **.numberOfCarsPerPlatoon 8
param **.numberOfLanes 1
param **.numericController 1
param **.traffic.nCars 8
param **.traffic.nLanes 1
param **.traffic.platoonInsertDistance 7m
param **.traffic.platoonInsertHeadway 0s
param **.traffic.platoonInsertSpeed 120kmph
param **.traffic.platoonInsertTime "1 s"
param **.traffic.platoonLeaderHeadway 1.2s
param **.traffic.platoonSize 8
param **.traffic.platooningVType "\"vtypeauto\""
param **.traffic_type "\"PlatoonsTrafficManager\""
param *.**.nic.mac1609_4.bitrate 6Mbps
param *.**.nic.mac1609_4.txPower 100mW
param *.**.nic.mac1609_4.useServiceChannel false
param *.**.nic.phy80211p.analogueModels "xmldoc(\"config.xml\")"
param *.**.nic.phy80211p.decider "xmldoc(\"config.xml\")"
param *.**.nic.phy80211p.maxTXPower 100mW
param *.**.nic.phy80211p.sensitivity -94dBm
param *.**.nic.phy80211p.thermalNoise -95dBm
param *.**.nic.phy80211p.usePropagationDelay true
param *.**.nic.phy80211p.useThermalNoise true
param *.annotations.draw false
param *.connectionManager.alpha 2.0
param *.connectionManager.carrierFrequency "5.890e9 Hz"
param *.connectionManager.pMax 100mW
param *.connectionManager.sat -94dBm
param *.connectionManager.sendDirect true
param *.manager.autoShutdown true
param *.manager.commandLine "\"sumo --remote-port $port --seed $seed --configuration-file $configFile\""
param *.manager.configFile "\"./sumocfg/freeway.sumo.cfg\""
param *.manager.host "\"localhost\""
param *.manager.margin 25
param *.manager.moduleDisplayString "\"\""
param *.manager.moduleName "\"node\""
param *.manager.moduleType "\"Car\""
param *.manager.updateInterval 0.01s
param *.node[*].appl.attackStart 31s
param *.node[*].appl.attackerType 1
param *.node[*].appl.simulationDuration "60 s"
param *.node[*].appl_type "\"SimplePlatooningApp\""
param *.node[*].helper.nCars 8
param *.node[*].helper.nLanes 1
param *.node[*].helper.platoonSize 8
param *.node[*].helper_type "\"PositionHelper\""
param *.node[*].mobility.x 0
param *.node[*].mobility.y 0
param *.node[*].mobility.z 1.895
param *.node[*].prot.attackStart 31s
param *.node[*].prot.attackerType 1
param *.node[*].prot.attackingNode 3
param *.node[*].prot.beaconingInterval 0.1s
param *.node[*].prot.fakeAcc "(1 == 4)"
param *.node[*].prot.fakePos "(1 == 2)"
param *.node[*].prot.fakeSpeed "(1 == 3)"
param *.node[*].prot.maliciousAcc "-30 mpss"
param *.node[*].prot.maliciousSpeed 150kmph
param *.node[*].prot.packetSize 200
param *.node[*].prot.priority 2
param *.node[*].prot.shiftX "7 m"
param *.node[*].prot.useControllerAcceleration true
param *.node[*].protocol_type "\"SimplePlatooningBeaconing\""
param *.node[*].scenario.accHeadway 0.1s
param *.node[*].scenario.caccC1 0.5
param *.node[*].scenario.caccOmegaN "0.2 Hz"
param *.node[*].scenario.caccSpacing 7m
param *.node[*].scenario.caccXi 1
param *.node[*].scenario.controller "\"CACC\""
param *.node[*].scenario.engineTau "0.5 s"
param *.node[*].scenario.leaderHeadway 1.2s
param *.node[*].scenario.leaderOscillationFrequency "0.2 Hz"
param *.node[*].scenario.leaderSpeed 120kmph
param *.node[*].scenario.oscillationAmplitude "10 kmph"
param *.node[*].scenario.ploegH 0.5s
param *.node[*].scenario.ploegKd 0.7
param *.node[*].scenario.ploegKp 0.2
param *.node[*].scenario.startOscillating "5 s"
param *.node[*].scenario.useRealisticEngine false
param *.node[*].scenario_type "\"SinusoidalScenario\""
param *.node[*].unicast.packetLossRate 0
param *.obstacles.debug false
param *.playgroundSizeX 65000m
param *.playgroundSizeY 25000m
param *.playgroundSizeZ 50m
param *.world.use2D false
param *.world.useTorus false

vector 0  scenario.node[0].appl  distance  ETV
vector 1  scenario.node[0].appl  relativeSpeed  ETV
vector 2  scenario.node[0].appl  nodeId  ETV
vector 6  scenario.node[0].appl  acceleration  ETV
vector 7  scenario.node[0].appl  controllerAcceleration  ETV
vector 3  scenario.node[0].appl  speed  ETV
vector 4  scenario.node[0].appl  posx  ETV
vector 5  scenario.node[0].appl  posy  ETV
vector 22  scenario.node[1].appl  distance  ETV
vector 23  scenario.node[1].appl  relativeSpeed  ETV
vector 24  scenario.node[1].appl  nodeId  ETV
vector 28  scenario.node[1].appl  acceleration  ETV
vector 29  scenario.node[1].appl  controllerAcceleration  ETV
vector 25  scenario.node[1].appl  speed  ETV
vector 26  scenario.node[1].appl  posx  ETV
vector 27  scenario.node[1].appl  posy  ETV
vector 44  scenario.node[2].appl  distance  ETV
vector 45  scenario.node[2].appl  relativeSpeed  ETV
vector 46  scenario.node[2].appl  nodeId  ETV
vector 50  scenario.node[2].appl  acceleration  ETV
vector 51  scenario.node[2].appl  controllerAcceleration  ETV
vector 47  scenario.node[2].appl  speed  ETV
vector 48  scenario.node[2].appl  posx  ETV
vector 49  scenario.node[2].appl  posy  ETV
vector 66  scenario.node[3].appl  distance  ETV
vector 67  scenario.node[3].appl  relativeSpeed  ETV
vector 68  scenario.node[3].appl  nodeId  ETV
vector 72  scenario.node[3].appl  acceleration  ETV
vector 73  scenario.node[3].appl  controllerAcceleration  ETV
vector 69  scenario.node[3].appl  speed  ETV
vector 70  scenario.node[3].appl  posx  ETV
vector 71  scenario.node[3].appl  posy  ETV
vector 88  scenario.node[4].appl  distance  ETV
vector 89  scenario.node[4].appl  relativeSpeed  ETV
vector 90  scenario.node[4].appl  nodeId  ETV
vector 94  scenario.node[4].appl  acceleration  ETV
vector 95  scenario.node[4].appl  controllerAcceleration  ETV
vector 91  scenario.node[4].appl  speed  ETV
vector 92  scenario.node[4].appl  posx  ETV
vector 93  scenario.node[4].appl  posy  ETV
vector 110  scenario.node[5].appl  distance  ETV
vector 111  scenario.node[5].appl  relativeSpeed  ETV
vector 112  scenario.node[5].appl  nodeId  ETV
vector 116  scenario.node[5].appl  acceleration  ETV
vector 117  scenario.node[5].appl  controllerAcceleration  ETV
vector 113  scenario.node[5].appl  speed  ETV
vector 114  scenario.node[5].appl  posx  ETV
vector 115  scenario.node[5].appl  posy  ETV
vector 132  scenario.node[6].appl  distance  ETV
vector 133  scenario.node[6].appl  relativeSpeed  ETV
vector 134  scenario.node[6].appl  nodeId  ETV
vector 138  scenario.node[6].appl  acceleration  ETV
vector 139  scenario.node[6].appl  controllerAcceleration  ETV
vector 135  scenario.node[6].appl  speed  ETV
vector 136  scenario.node[6].appl  posx  ETV
vector 137  scenario.node[6].appl  posy  ETV
vector 154  scenario.node[7].appl  distance  ETV
vector 155  scenario.node[7].appl  relativeSpeed  ETV
vector 156  scenario.node[7].appl  nodeId  ETV
vector 160  scenario.node[7].appl  acceleration  ETV
vector 161  scenario.node[7].appl  controllerAcceleration  ETV
vector 157  scenario.node[7].appl  speed  ETV
vector 158  scenario.node[7].appl  posx  ETV
vector 159  scenario.node[7].appl  posy  ETV
vector 102  scenario.node[4].prot  frontDelay  ETV
vector 100  scenario.node[4].prot  frontDelayId  ETV
vector 35  scenario.node[1].prot  leaderDelay  ETV
vector 33  scenario.node[1].prot  leaderDelayId  ETV
vector 36  scenario.node[1].prot  frontDelay  ETV
vector 34  scenario.node[1].prot  frontDelayId  ETV
vector 57  scenario.node[2].prot  leaderDelay  ETV
vector 55  scenario.node[2].prot  leaderDelayId  ETV
vector 79  scenario.node[3].prot  leaderDelay  ETV
vector 77  scenario.node[3].prot  leaderDelayId  ETV
vector 101  scenario.node[4].prot  leaderDelay  ETV
vector 99  scenario.node[4].prot  leaderDelayId  ETV
vector 123  scenario.node[5].prot  leaderDelay  ETV
vector 121  scenario.node[5].prot  leaderDelayId  ETV
vector 145  scenario.node[6].prot  leaderDelay  ETV
vector 143  scenario.node[6].prot  leaderDelayId  ETV
vector 167  scenario.node[7].prot  leaderDelay  ETV
vector 165  scenario.node[7].prot  leaderDelayId  ETV
vector 80  scenario.node[3].prot  frontDelay  ETV
vector 78  scenario.node[3].prot  frontDelayId  ETV
vector 146  scenario.node[6].prot  frontDelay  ETV
vector 144  scenario.node[6].prot  frontDelayId  ETV
vector 58  scenario.node[2].prot  frontDelay  ETV
vector 56  scenario.node[2].prot  frontDelayId  ETV
vector 124  scenario.node[5].prot  frontDelay  ETV
vector 122  scenario.node[5].prot  frontDelayId  ETV
vector 168  scenario.node[7].prot  frontDelay  ETV
vector 166  scenario.node[7].prot  frontDelayId  ETV
vector 8  scenario.node[0].prot  nodeId  ETV
vector 9  scenario.node[0].prot  busyTime  ETV
vector 10  scenario.node[0].prot  collisions  ETV
vector 30  scenario.node[1].prot  nodeId  ETV
vector 31  scenario.node[1].prot  busyTime  ETV
vector 32  scenario.node[1].prot  collisions  ETV
vector 52  scenario.node[2].prot  nodeId  ETV
vector 53  scenario.node[2].prot  busyTime  ETV
vector 54  scenario.node[2].prot  collisions  ETV
vector 74  scenario.node[3].prot  nodeId  ETV
vector 75  scenario.node[3].prot  busyTime  ETV
vector 76  scenario.node[3].prot  collisions  ETV
vector 96  scenario.node[4].prot  nodeId  ETV
vector 97  scenario.node[4].prot  busyTime  ETV
vector 98  scenario.node[4].prot  collisions  ETV
vector 118  scenario.node[5].prot  nodeId  ETV
vector 119  scenario.node[5].prot  busyTime  ETV
vector 120  scenario.node[5].prot  collisions  ETV
vector 140  scenario.node[6].prot  nodeId  ETV
vector 141  scenario.node[6].prot  busyTime  ETV
vector 142  scenario.node[6].prot  collisions  ETV
vector 162  scenario.node[7].prot  nodeId  ETV
vector 163  scenario.node[7].prot  busyTime  ETV
vector 164  scenario.node[7].prot  collisions  ETV
7	232	1.11	1.264609664986e-06
7	788	1.21	1.2370558053476e-06
7	1344	1.31	1.1922643139428e-06
7	1900	1.41	1.1341353030048e-06
7	2456	1.51	1.0661075364737e-06
7	3012	1.61	9.9117950469463e-07
7	3568	1.71	9.1193474816009e-07
7	4124	1.81	8.3057002342457e-07
7	4680	1.91	7.4892560064654e-07
7	5244	2.01	6.6851609403784e-07
7	5800	2.11	5.9056183232542e-07
7	6356	2.21	5.1602003736662e-07
7	6912	2.31	4.4561458878434e-07
7	7468	2.41	3.7986517753552e-07
7	8024	2.51	3.1911461206846e-07
7	8580	2.61	2.6355444049386e-07
7	9136	2.71	2.1324864718508e-07
7	9692	2.81	1.6815555881067e-07
7	10248	2.91	1.2814749794643e-07
7	10812	3.01	9.3028553749264e-08
7	11368	3.11	6.255026363533e-08
7	11924	3.21	3.6425589655664e-08
7	12480	3.31	1.4340962195547e-08
7	13036	3.41	-4.0332679418498e-09
7	13592	3.51	-1.9034231968362e-08
7	14148	3.61	-3.0998883460143e-08
7	14704	3.71	-4.0258086642098e-08
7	15260	3.81	-4.7131671010447e-08
7	15816	3.91	-5.1925063360159e-08
7	16380	4.01	-5.4926061920924e-08
7	16936	4.11	-5.6402775783226e-08
7	17492	4.21	-5.6602530662531e-08
7	18048	4.31	-5.5751151251116e-08
7	18604	4.41	-5.4052726738973e-08
7	19160	4.51	-5.1689909241759e-08
7	19716	4.61	-4.8824482234977e-08
7	20272	4.71	-4.5598198994412e-08
7	20828	4.81	-4.2133798672239e-08
7	21384	4.91	-3.8536192903393e-08
7	21949	5.01	-3.4893794520485e-08
7	22506	5.11	0.34814783973202
7	23063	5.21	0.68726932535991
7	23620	5.31	1.0064705905053
7	24177	5.41	1.2963311346507
7	24734	5.51	1.5
7	25291	5.61	1.5
7	25848	5.71	1.5
7	26405	5.81	1.5
7	26962	5.91	1.5
7	27527	6.01	1.5
7	28084	6.11	1.5
7	28641	6.21	1.5
7	29198	6.31	1.5
7	29755	6.41	1.5
7	30312	6.51	1.4919234058593
7	30869	6.61	1.2264993209595
7	31426	6.71	0.92305383326438
7	31983	6.81	0.5890810138258
7	32540	6.91	0.23235621116515
7	33105	7.01	-0.13919560237429
7	33662	7.11	-0.51762846938546
7	34219	7.21	-0.89509994250727
7	34776	7.31	-1.2639902910536
7	35333	7.41	-1.5
7	35890	7.51	-1.5
7	36447	7.61	-1.5
7	37004	7.71	-1.5
7	37561	7.81	-1.5
7	38118	7.91	-1.5
7	38683	8.01	-1.5
7	39240	8.11	-1.5
7	39797	8.21	-1.5
7	40354	8.31	-1.5
7	40911	8.41	-1.5
7	41468	8.51	-1.5
7	42025	8.61	-1.5
7	42582	8.71	-1.5
7	43139	8.81	-1.5
7	43696	8.91	-1.5
7	44261	9.01	-1.5
7	44818	9.11	-1.5
7	45375	9.21	-1.5
7	45932	9.31	-1.5
7	46489	9.41	-1.5
7	47046	9.51	-1.178453590773
7	47603	9.61	-0.73985166452546
7	48160	9.71	-0.29046662090423
7	48717	9.81	0.15868205640434
7	49274	9.91	0.59737147663756
7	49839	10.01	1.0162504339375
7	50396	10.11	1.4069035496629
7	50953	10.21	1.5
7	51510	10.31	1.5
7	52067	10.41	1.5
7	52624	10.51	1.5
7	53181	10.61	1.5
7	53738	10.71	1.5
7	54295	10.81	1.5
7	54852	10.91	1.5
7	55417	11.01	1.5
7	55974	11.11	1.5
7	56531	11.21	1.5
7	57088	11.31	1.5
7	57645	11.41	1.5
7	58202	11.51	1.5
7	58759	11.61	1.5
7	59316	11.71	1.5
7	59873	11.81	1.5
7	60430	11.91	1.1420569522446
7	60995	12.01	0.73271074165216
7	61552	12.11	0.30763491694659
7	62109	12.21	-0.12290183408495
7	62666	12.31	-0.5491742287245
7	63223	12.41	-0.96209331723149
7	63780	12.51	-1.3532900275905
7	64337	12.61	-1.5
7	64894	12.71	-1.5
7	65451	12.81	-1.5
7	66008	12.91	-1.5
7	66573	13.01	-1.5
7	67130	13.11	-1.5
7	67687	13.21	-1.5
7	68244	13.31	-1.5
7	68801	13.41	-1.5
7	69358	13.51	-1.5
7	69915	13.61	-1.5
7	70472	13.71	-1.5
7	71029	13.81	-1.5
7	71586	13.91	-1.5
7	72151	14.01	-1.5
7	72708	14.11	-1.5
7	73265	14.21	-1.5
7	73822	14.31	-1.5
7	74379	14.41	-1.300830579343
7	74936	14.51	-0.88835736023715
7	75493	14.61	-0.45792464377335
7	76050	14.71	-0.020297800504288
7	76607	14.81	0.41435934755211
7	77164	14.91	0.83657487482698
7	77729	15.01	1.2376491838765
7	78286	15.11	1.5
7	78843	15.21	1.5
7	79400	15.31	1.5
7	79957	15.41	1.5
7	80514	15.51	1.5
7	81071	15.61	1.5
7	81628	15.71	1.5
7	82185	15.81	1.5
7	82742	15.91	1.5
7	83307	16.01	1.5
7	83864	16.11	1.5
7	84421	16.21	1.5
7	84978	16.31	1.5
7	85535	16.41	1.5
7	86092	16.51	1.5
7	86649	16.61	1.5
7	87206	16.71	1.5
7	87763	16.81	1.5
7	88320	16.91	1.2451238477297
7	88885	17.01	0.83347870134542
7	89442	17.11	0.40470958876118
7	89999	17.21	-0.030598062226161
7	90556	17.31	-0.46243980387321
7	91113	17.41	-0.88148335305221
7	91670	17.51	-1.2791500631775
7	92227	17.61	-1.5
7	92784	17.71	-1.5
7	93341	17.81	-1.5
7	93898	17.91	-1.5
7	94463	18.01	-1.5
7	95020	18.11	-1.5
7	95577	18.21	-1.5
7	96134	18.31	-1.5
7	96691	18.41	-1.5
7	97248	18.51	-1.5
7	97805	18.61	-1.5
7	98362	18.71	-1.5
7	98919	18.81	-1.5
7	99476	18.91	-1.5
7	100041	19.01	-1.5
7	100598	19.11	-1.5
7	101155	19.21	-1.5
7	101712	19.31	-1.5
7	102269	19.41	-1.2657245815155
7	102826	19.51	-0.85377693481785
7	103383	19.61	-0.42439560038367
7	103940	19.71	0.011767371265513
7	104497	19.81	0.44464851836144
7	105054	19.91	0.86486384400278
7	105619	20.01	1.2637899041103
7	106176	20.11	1.5
7	106733	20.21	1.5
7	107290	20.31	1.5
7	107847	20.41	1.5
7	108404	20.51	1.5
7	108961	20.61	1.5
7	109518	20.71	1.5
7	110075	20.81	1.5
7	110632	20.91	1.5
7	111197	21.01	1.5
7	111754	21.11	1.5
7	112311	21.21	1.5
7	112868	21.31	1.5
7	113425	21.41	1.5
7	113982	21.51	1.5
7	114539	21.61	1.5
7	115096	21.71	1.5
7	115653	21.81	1.5
7	116210	21.91	1.2580915517739
7	116775	22.01	0.84625491634584
7	117332	22.11	0.41709956367264
7	117889	22.21	-0.018747163545136
7	118446	22.31	-0.45124369149665
7	119003	22.41	-0.87102520538844
7	119560	22.51	-1.269484879462
7	120117	22.61	-1.5
7	120674	22.71	-1.5
7	121231	22.81	-1.5
7	121788	22.91	-1.5
7	122353	23.01	-1.5
7	122910	23.11	-1.5
7	123467	23.21	-1.5
7	124024	23.31	-1.5
7	124581	23.41	-1.5
7	125138	23.51	-1.5
7	125695	23.61	-1.5
7	126252	23.71	-1.5
7	126809	23.81	-1.5
7	127366	23.91	-1.5
7	127931	24.01	-1.5
7	128488	24.11	-1.5
7	129045	24.21	-1.5
7	129602	24.31	-1.5
7	130159	24.41	-1.260923965114
7	130716	24.51	-0.84904615684758
7	131273	24.61	-0.41980696481334
7	131830	24.71	0.016157099443966
7	132387	24.81	0.44879633965816
7	132944	24.91	0.86873882266688
7	133509	25.01	1.2673715557178
7	134066	25.11	1.5
7	134623	25.21	1.5
7	135180	25.31	1.5
7	135737	25.41	1.5
7	136294	25.51	1.5
7	136851	25.61	1.5
7	137408	25.71	1.5
7	137965	25.81	1.5
7	138522	25.91	1.5
7	139087	26.01	1.5
7	139644	26.11	1.5
7	140201	26.21	1.5
7	140758	26.31	1.5
7	141315	26.41	1.5
7	141872	26.51	1.5
7	142429	26.61	1.5
7	142986	26.71	1.5
7	143543	26.81	1.5
7	144100	26.91	1.2598728518647
7	144665	27.01	0.8480103225158
7	145222	27.11	0.41880224309308
7	145779	27.21	-0.017118277440183
7	146336	27.31	-0.44970455708226
7	146893	27.41	-0.86958730431697
7	147450	27.51	-1.2681558149808
7	148007	27.61	-1.5
7	148564	27.71	-1.5
7	149121	27.81	-1.5
7	149678	27.91	-1.5
7	150243	28.01	-1.5
7	150800	28.11	-1.5
7	151357	28.21	-1.5
7	151914	28.31	-1.5
7	152471	28.41	-1.5
7	153028	28.51	-1.5
7	153585	28.61	-1.5
7	154142	28.71	-1.5
7	154699	28.81	-1.5
7	155256	28.91	-1.5
7	155821	29.01	-1.5
7	156378	29.11	-1.5
7	156935	29.21	-1.5
7	157492	29.31	-1.5
7	158049	29.41	-1.2602629232501
7	158606	29.51	-0.84839472385493
7	159163	29.61	-0.41917509845157
7	159720	29.71	0.016761581288016
7	160277	29.81	0.44936751475895
7	160834	29.91	0.86927243012207
7	161399	30.01	1.2678647739113
7	161956	30.11	1.5
7	162513	30.21	1.5
7	163070	30.31	1.5
7	163627	30.41	1.5
7	164184	30.51	1.5
7	164741	30.61	1.5
7	165298	30.71	1.5
7	165855	30.81	1.5
7	166412	30.91	1.5
7	166977	31.01	1.5
7	167534	31.11	1.5
7	168091	31.21	1.5
7	168648	31.31	1.5
7	169205	31.41	1.5
7	169762	31.51	1.5
7	170319	31.61	1.5
7	170876	31.71	1.5
7	171433	31.81	1.5
7	171990	31.91	1.2601181665228
7	172555	32.01	0.84825207129951
7	173112	32.11	0.41903673064589
7	173669	32.21	-0.016893952361208
7	174226	32.31	-0.44949259223428
7	174783	32.41	-0.8693892809349
7	175340	32.51	-1.2679727801759
7	175897	32.61	-1.5
7	176454	32.71	-1.5
7	177011	32.81	-1.5
7	177568	32.91	-1.5
7	178133	33.01	-1.5
7	178690	33.11	-1.5
7	179247	33.21	-1.5
7	179804	33.31	-1.5
7	180361	33.41	-1.5
7	180918	33.51	-1.5
7	181475	33.61	-1.5
7	182032	33.71	-1.5
7	182589	33.81	-1.5
7	183146	33.91	-1.5
7	183711	34.01	-1.5
7	184268	34.11	-1.5
7	184825	34.21	-1.5
7	185382	34.31	-1.5
7	185939	34.41	-1.2601718862023
7	186496	34.51	-0.84830501011423
7	187053	34.61	-0.4190880793765
7	187610	34.71	0.016844829036998
7	188167	34.81	0.44944617558727
7	188724	34.91	0.86934591722826
7	189289	35.01	1.2679326987089
7	189846	35.11	1.5
7	190403	35.21	1.5
7	190960	35.31	1.5
7	191517	35.41	1.5
7	192074	35.51	1.5
7	192631	35.61	1.5
6	232	1.11	1.8587371641843e-07
6	788	1.21	3.7715039979958e-07
6	1344	1.31	5.2730015909219e-07
6	1900	1.41	6.4101826069418e-07
6	2456	1.51	7.2280812446479e-07
6	3012	1.61	7.7694011224594e-07
6	3568	1.71	8.0741315855448e-07
6	4124	1.81	8.1792990158647e-07
6	4680	1.91	8.1188602507609e-07
6	5244	2.01	7.9236670558203e-07
6	5800	2.11	7.6214163868826e-07
6	6356	2.21	7.2367640768789e-07
6	6912	2.31	6.7914172063865e-07
6	7468	2.41	6.3042691067494e-07
6	8024	2.51	5.791562784907e-07
6	8580	2.61	5.2670969807878e-07
6	9136	2.71	4.7423895921384e-07
6	9692	2.81	4.226883731917e-07
6	10248	2.91	3.7281679965417e-07
6	10812	3.01	3.2521825232834e-07
6	11368	3.11	2.8033753096679e-07
6	11924	3.21	2.3849224817241e-07
6	12480	3.31	1.9988561916762e-07
6	13036	3.41	1.6463133079014e-07
6	13592	3.51	1.3275709420668e-07
6	14148	3.61	1.0422880336591e-07
6	14704	3.71	7.8954798254927e-08
6	15260	3.81	5.6805049553077e-08
6	15816	3.91	3.7617553516611e-08
6	16380	4.01	2.1201884692346e-08
6	16936	4.11	7.354117315117e-09
6	17492	4.21	-4.1374903503311e-09
6	18048	4.31	-1.3491074923877e-08
6	18604	4.41	-2.0921930854456e-08
6	19160	4.51	-2.6641799877325e-08
6	19716	4.61	-3.0856028843118e-08
6	20272	4.71	-3.3759306461434e-08
6	20828	4.81	-3.5534952758098e-08
6	21384	4.91	-3.6354919075166e-08
6	21949	5.01	-3.6375524814503e-08
6	22506	5.11	0.0068263931019885
6	23063	5.21	0.074594779098902
6	23620	5.31	0.19005129180201
6	24177	5.41	0.34050267454901
6	24734	5.51	0.51301634170429
6	25291	5.61	0.6902545459468
6	25848	5.71	0.83572669343468
6	26405	5.81	0.95506452230651
6	26962	5.91	1.0529631073332
6	27527	6.01	1.1332740451195
6	28084	6.11	1.1991569863937
6	28641	6.21	1.2532039452594
6	29198	6.31	1.2975412760781
6	29755	6.41	1.3339133300356
6	30312	6.51	1.3635927180715
6	30869	6.61	1.3702053544215
6	31426	6.71	1.3272611853779
6	31983	6.81	1.2373810849141
6	32540	6.91	1.1040433684336
6	33105	7.01	0.93147091325463
6	33662	7.11	0.72451589912248
6	34219	7.21	0.48854317732108
6	34776	7.31	0.22931329054146
6	35333	7.41	-0.044839403605579
6	35890	7.51	-0.30626147870336
6	36447	7.61	-0.52071863355891
6	37004	7.71	-0.69664819594024
6	37561	7.81	-0.84097171333752
6	38118	7.91	-0.95936726546597
6	38683	8.01	-1.0564928553684
6	39240	8.11	-1.1361696679188
6	39797	8.21	-1.2015324056335
6	40354	8.31	-1.2551526163939
6	40911	8.41	-1.2991398651295
6	41468	8.51	-1.3352247298471
6	42025	8.61	-1.3648268872679
6	42582	8.71	-1.3891109667817
6	43139	8.81	-1.4090323701247
6	43696	8.91	-1.4253748594882
6	44261	9.01	-1.4387813928529
6	44818	9.11	-1.4497794197055
6	45375	9.21	-1.4588016323373
6	45932	9.31	-1.4662029891298
6	46489	9.41	-1.4722746795918
6	47046	9.51	-1.4696249147882
6	47603	9.61	-1.3967850640618
6	48160	9.71	-1.2587757643061
6	48717	9.81	-1.066095221988
6	49274	9.91	-0.82923335039382
6	49839	10.01	-0.55852907855325
6	50396	10.11	-0.26404116091285
6	50953	10.21	0.03943269852158
6	51510	10.31	0.30182609737963
6	52067	10.41	0.5170800760304
6	52624	10.51	0.69366331145844
6	53181	10.61	0.83852306842829
6	53738	10.71	0.95735852377814
6	54295	10.81	1.0548449875394
6	54852	10.91	1.1348178423468
6	55417	11.01	1.2004234378246
6	55974	11.11	1.2542428765379
6	56531	11.21	1.2983935615857
6	57088	11.31	1.3346125010031
6	57645	11.41	1.3643246463779
6	58202	11.51	1.3886989543209
6	58759	11.61	1.4086943764035
6	59316	11.71	1.4250975869132
6	59873	11.81	1.438553932767
6	60430	11.91	1.4345627372599
6	60995	12.01	1.3623449188415
6	61552	12.11	1.2299875654037
6	62109	12.21	1.0461448397272
6	62666	12.31	0.81967864243424
6	63223	12.41	0.55952045898948
6	63780	12.51	0.27454262943465
6	64337	12.61	-0.022341644934443
6	64894	12.71	-0.28780548062457
6	65451	12.81	-0.50557828691211
6	66008	12.91	-0.68422783830826
6	66573	13.01	-0.83078269407011
6	67130	13.11	-0.95100872083407
6	67687	13.21	-1.0496359374898
6	68244	13.31	-1.1305446069947
6	68801	13.41	-1.1969178964684
6	69358	13.51	-1.2513671116459
6	69915	13.61	-1.2960344327446
6	70472	13.71	-1.332677193669
6	71029	13.81	-1.3627370202968
6	71586	13.91	-1.3873965479647
6	72151	14.01	-1.4076259495631
6	72708	14.11	-1.4242211047723
6	73265	14.21	-1.4378349121337
6	73822	14.31	-1.4490029758569
6	74379	14.41	-1.4542593951873
6	74936	14.51	-1.4067454390094
6	75493	14.61	-1.2938574955413
6	76050	14.71	-1.1248409052385
6	76607	14.81	-0.90912582144114
6	77164	14.91	-0.65618298377643
6	77729	15.01	-0.37539052555147
6	78286	15.11	-0.078063005102535
6	78843	15.21	0.20543869666909
6	79400	15.31	0.438008835728
6	79957	15.41	0.62879735390737
6	80514	15.51	0.78531039043099
6	81071	15.61	0.9137055938524
6	81628	15.71	1.0190343806897
6	82185	15.81	1.1054406719012
6	82742	15.91	1.1763239259942
6	83307	16.01	1.2344728829795
6	83864	16.11	1.2821752809813
6	84421	16.21	1.3213078620829
6	84978	16.31	1.3534102084591
6	85535	16.41	1.3797453137308
6	86092	16.51	1.4013492725667
6	86649	16.61	1.4190720434684
6	87206	16.71	1.4336108884464
6	87763	16.81	1.4455378052055
6	88320	16.91	1.450294906531
6	88885	17.01	1.3935559567486
6	89442	17.11	1.273336870139
6	89999	17.21	1.0986742440473
6	90556	17.31	0.87879676590887
6	91113	17.41	0.62298329275308
6	91670	17.51	0.34043137852748
6	92227	17.61	0.043031849074282
6	92784	17.71	-0.23417644595867
6	93341	17.81	-0.46158379950043
6	93898	17.91	-0.64813703535762
6	94463	18.01	-0.80117566522802
6	95020	18.11	-0.92672064505877
6	95577	18.21	-1.0297112558206
6	96134	18.31	-1.1141994282617
6	96691	18.41	-1.1835091568834
6	97248	18.51	-1.240367274923
6	97805	18.61	-1.2870107353912
6	98362	18.71	-1.3252746188869
6	98919	18.81	-1.3566643306589
6	99476	18.91	-1.3824148273436
6	100041	19.01	-1.4035392035204
6	100598	19.11	-1.420868549603
6	101155	19.21	-1.4350846492
6	101712	19.31	-1.4467468023348
6	102269	19.41	-1.4517201941764
6	102826	19.51	-1.3984004323888
6	103383	19.61	-1.2808993810097
6	103940	19.71	-1.1083308503785
6	104497	19.81	-0.88999806036867
6	105054	19.91	-0.63525086466854
6	105619	20.01	-0.35335363991464
6	106176	20.11	-0.055983891308387
6	106733	20.21	0.22355126013309
6	107290	20.31	0.45286744637281
6	107847	20.41	0.64098658988812
6	108404	20.51	0.79530980944469
6	108961	20.61	0.92190860023891
6	109518	20.71	1.0257637030342
6	110075	20.81	1.1109610600442
6	110632	20.91	1.1808525670212
6	111197	21.01	1.2381879459461
6	111754	21.11	1.2852229265711
6	112311	21.21	1.3238079929607
6	112868	21.31	1.3554611865736
6	113425	21.41	1.3814278301389
6	113982	21.51	1.4027295220423
6	114539	21.61	1.4202043287803
6	115096	21.71	1.4345397567773
6	115653	21.81	1.4462998007623
6	116210	21.91	1.4512038299465
6	116775	22.01	1.3966149622043
6	117332	22.11	1.2781048258539
6	117889	22.21	1.104758616826
6	118446	22.31	0.88585193074024
6	119003	22.41	0.63070830476093
6	119560	22.51	0.34856734380924
6	120117	22.61	0.051185654368879
6	120674	22.71	-0.22748748564823
6	121231	22.81	-0.45609652228151
6	121788	22.91	-0.64363555681979
6	122353	23.01	-0.79748288496191
6	122910	23.11	-0.92369127904561
6	123467	23.21	-1.0272261205614
6	124024	23.31	-1.1121607517779
6	124581	23.41	-1.1818367320963
6	125138	23.51	-1.2389953040923
6	125695	23.61	-1.2858852414531
6	126252	23.71	-1.324351321847
6	126809	23.81	-1.355906905502
6	127366	23.91	-1.3817934749042
6	127931	24.01	-1.403029478103
6	128488	24.11	-1.4204503972238
6	129045	24.21	-1.4347416186069
6	129602	24.31	-1.4464653977718
6	130159	24.41	-1.4513952146871
6	130716	24.51	-1.397277320676
6	131273	24.61	-1.2791416668563
6	131830	24.71	-1.1060840673039
6	132387	24.81	-0.88739036841758
6	132944	24.91	-0.63239387292811
6	133509	25.01	-0.35034337811126
6	134066	25.11	-0.052966136912147
6	134623	25.21	0.22602686982154
6	135180	25.31	0.45489830857193
6	135737	25.41	0.64265260423966
6	136294	25.51	0.7966765214853
6	136851	25.61	0.92302978013734
6	137408	25.71	1.0266834610576
6	137965	25.81	1.1117155819754
6	138522	25.91	1.1814715378058
6	139087	26.01	1.2386957175771
6	139644	26.11	1.2856394761641
6	140201	26.21	1.3241497087101
6	140758	26.31	1.3557415125085
6	141315	26.41	1.3816577950429
6	141872	26.51	1.4029181733591
6	142429	26.61	1.4203590885664
6	142986	26.71	1.4346667137048
6	143543	26.81	1.4464039496623
6	144100	26.91	1.4513241957715
6	144665	27.01	1.3970315218245
6	145222	27.11	1.2787568961947
6	145779	27.21	1.1055921925461
6	146336	27.31	0.8868194531928
6	146893	27.41	0.63176835684402
6	147450	27.51	0.34968428947408
6	148007	27.61	0.052305397196051
6	148564	27.71	-0.22656890652399
6	149121	27.81	-0.45534296745871
6	149678	27.91	-0.64301737940156
6	150243	28.01	-0.79697576417033
6	150800	28.11	-0.92327526336575
6	151357	28.21	-1.0268848428062
6	151914	28.31	-1.1118807851517
6	152471	28.41	-1.1816070619503
6	153028	28.51	-1.2388068945782
6	153585	28.61	-1.2857306800278
6	154142	28.71	-1.3242245276466
6	154699	28.81	-1.3558028900952
6	155256	28.91	-1.3817081460417
6	155821	29.01	-1.4029594787168
6	156378	29.11	-1.4203929733462
6	156935	29.21	-1.4346945110262
6	157492	29.31	-1.446426753148
6	158049	29.41	-1.4513505510308
6	158606	29.51	-1.3971227384744
6	159163	29.61	-1.2788996857282
6	159720	29.71	-1.1057747287524
6	160277	29.81	-0.88703132157306
6	160834	29.91	-0.63200048778285
6	161399	30.01	-0.34992887930017
6	161956	30.11	-0.052550599748002
6	162513	30.21	0.22636775502534
6	163070	30.31	0.45517795316812
6	163627	30.41	0.64288201020943
6	164184	30.51	0.79686471428317
6	164741	30.61	0.92318416377992
6	165298	30.71	1.0268101094155
6	165855	30.81	1.1118194777403
6	166412	30.91	1.181556768519
6	166977	31.01	1.2387656364474
6	167534	31.11	1.2856968339904
6	168091	31.21	1.3241967621056
6	168648	31.31	1.3557801126808
6	169205	31.41	1.3816894606293
6	169762	31.51	1.4029441501705
6	170319	31.61	1.4203803985993
6	170876	31.71	1.434684195354
6	171433	31.81	1.4464182907048
6	171990	31.91	1.4513407705138
6	172555	32.01	1.3970888876891
6	173112	32.11	1.2788466960821
6	173669	32.21	1.1057069889901
6	174226	32.31	0.88695269654835
6	174783	32.41	0.63191434325702
6	175340	32.51	0.3498381112415
6	175897	32.61	0.052459604304289
6	176454	32.71	-0.22644240298533
6	177011	32.81	-0.45523919049515
6	177568	32.91	-0.64293224614715
6	178133	33.01	-0.79690592524955
6	178690	33.11	-0.92321797112547
6	179247	33.21	-1.0268378432137
6	179804	33.31	-1.1118422291148
6	180361	33.41	-1.1815754325717
6	180918	33.51	-1.2387809474724
6	181475	33.61	-1.2857093943644
6	182032	33.71	-1.3242070659885
6	182589	33.81	-1.3557885654535
6	183146	33.91	-1.3816963948479
6	183711	34.01	-1.4029498386442
6	184268	34.11	-1.4203850651299
6	184825	34.21	-1.4346880235344
6	185382	34.31	-1.4464214311445
6	185939	34.41	-1.4513444000933
6	186496	34.51	-1.3971014498217
6	187053	34.61	-1.2788663607076
6	187610	34.71	-1.1057321274301
6	188167	34.81	-0.88698187454312
6	188724	34.91	-0.63194631176131
6	189289	35.01	-0.34987179555372
6	189846	35.11	-0.052493373000573
6	190403	35.21	0.22641470089155
6	190960	35.31	0.45521646513009
6	191517	35.41	0.64291360343205
6	192074	35.51	0.79689063173021
6	192631	35.61	0.92320542511359
5	232	1.11	36.55
5	788	1.21	36.55
5	1344	1.31	36.55
5	1900	1.41	36.55
5	2456	1.51	36.55
5	3012	1.61	36.55
5	3568	1.71	36.55
5	4124	1.81	36.55
5	4680	1.91	36.55
5	5244	2.01	36.55
5	5800	2.11	36.55
5	6356	2.21	36.55
5	6912	2.31	36.55
5	7468	2.41	36.55
5	8024	2.51	36.55
5	8580	2.61	36.55
5	9136	2.71	36.55
5	9692	2.81	36.55
5	10248	2.91	36.55
5	10812	3.01	36.55
5	11368	3.11	36.55
5	11924	3.21	36.55
5	12480	3.31	36.55
5	13036	3.41	36.55
5	13592	3.51	36.55
5	14148	3.61	36.55
5	14704	3.71	36.55
5	15260	3.81	36.55
5	15816	3.91	36.55
5	16380	4.01	36.55
5	16936	4.11	36.55
5	17492	4.21	36.55
5	18048	4.31	36.55
5	18604	4.41	36.55
5	19160	4.51	36.55
5	19716	4.61	36.55
5	20272	4.71	36.55
5	20828	4.81	36.55
5	21384	4.91	36.55
5	21949	5.01	36.55
5	22506	5.11	36.55
5	23063	5.21	36.55
5	23620	5.31	36.55
5	24177	5.41	36.55
5	24734	5.51	36.55
5	25291	5.61	36.55
5	25848	5.71	36.55
5	26405	5.81	36.55
5	26962	5.91	36.55
5	27527	6.01	36.55
5	28084	6.11	36.55
5	28641	6.21	36.55
5	29198	6.31	36.55
5	29755	6.41	36.55
5	30312	6.51	36.55
5	30869	6.61	36.55
5	31426	6.71	36.55
5	31983	6.81	36.55
5	32540	6.91	36.55
5	33105	7.01	36.55
5	33662	7.11	36.55
5	34219	7.21	36.55
5	34776	7.31	36.55
5	35333	7.41	36.55
5	35890	7.51	36.55
5	36447	7.61	36.55
5	37004	7.71	36.55
5	37561	7.81	36.55
5	38118	7.91	36.55
5	38683	8.01	36.55
5	39240	8.11	36.55
5	39797	8.21	36.55
5	40354	8.31	36.55
5	40911	8.41	36.55
5	41468	8.51	36.55
5	42025	8.61	36.55
5	42582	8.71	36.55
5	43139	8.81	36.55
5	43696	8.91	36.55
5	44261	9.01	36.55
5	44818	9.11	36.55
5	45375	9.21	36.55
5	45932	9.31	36.55
5	46489	9.41	36.55
5	47046	9.51	36.55
5	47603	9.61	36.55
5	48160	9.71	36.55
5	48717	9.81	36.55
5	49274	9.91	36.55
5	49839	10.01	36.55
5	50396	10.11	36.55
5	50953	10.21	36.55
5	51510	10.31	36.55
5	52067	10.41	36.55
5	52624	10.51	36.55
5	53181	10.61	36.55
5	53738	10.71	36.55
5	54295	10.81	36.55
5	54852	10.91	36.55
5	55417	11.01	36.55
5	55974	11.11	36.55
5	56531	11.21	36.55
5	57088	11.31	36.55
5	57645	11.41	36.55
5	58202	11.51	36.55
5	58759	11.61	36.55
5	59316	11.71	36.55
5	59873	11.81	36.55
5	60430	11.91	36.55
5	60995	12.01	36.55
5	61552	12.11	36.55
5	62109	12.21	36.55
5	62666	12.31	36.55
5	63223	12.41	36.55
5	63780	12.51	36.55
5	64337	12.61	36.55
5	64894	12.71	36.55
5	65451	12.81	36.55
5	66008	12.91	36.55
5	66573	13.01	36.55
5	67130	13.11	36.55
5	67687	13.21	36.55
5	68244	13.31	36.55
5	68801	13.41	36.55
5	69358	13.51	36.55
5	69915	13.61	36.55
5	70472	13.71	36.55
5	71029	13.81	36.55
5	71586	13.91	36.55
5	72151	14.01	36.55
5	72708	14.11	36.55
5	73265	14.21	36.55
5	73822	14.31	36.55
5	74379	14.41	36.55
5	74936	14.51	36.55
5	75493	14.61	36.55
5	76050	14.71	36.55
5	76607	14.81	36.55
5	77164	14.91	36.55
5	77729	15.01	36.55
5	78286	15.11	36.55
5	78843	15.21	36.55
5	79400	15.31	36.55
5	79957	15.41	36.55
5	80514	15.51	36.55
5	81071	15.61	36.55
5	81628	15.71	36.55
5	82185	15.81	36.55
5	82742	15.91	36.55
5	83307	16.01	36.55
5	83864	16.11	36.55
5	84421	16.21	36.55
5	84978	16.31	36.55
5	85535	16.41	36.55
5	86092	16.51	36.55
5	86649	16.61	36.55
5	87206	16.71	36.55
5	87763	16.81	36.55
5	88320	16.91	36.55
5	88885	17.01	36.55
5	89442	17.11	36.55
5	89999	17.21	36.55
5	90556	17.31	36.55
5	91113	17.41	36.55
5	91670	17.51	36.55
5	92227	17.61	36.55
5	92784	17.71	36.55
5	93341	17.81	36.55
5	93898	17.91	36.55
5	94463	18.01	36.55
5	95020	18.11	36.55
5	95577	18.21	36.55
5	96134	18.31	36.55
5	96691	18.41	36.55
5	97248	18.51	36.55
5	97805	18.61	36.55
5	98362	18.71	36.55
5	98919	18.81	36.55
5	99476	18.91	36.55
5	100041	19.01	36.55
5	100598	19.11	36.55
5	101155	19.21	36.55
5	101712	19.31	36.55
5	102269	19.41	36.55
5	102826	19.51	36.55
5	103383	19.61	36.55
5	103940	19.71	36.55
5	104497	19.81	36.55
5	105054	19.91	36.55
5	105619	20.01	36.55
5	106176	20.11	36.55
5	106733	20.21	36.55
5	107290	20.31	36.55
5	107847	20.41	36.55
5	108404	20.51	36.55
5	108961	20.61	36.55
5	109518	20.71	36.55
5	110075	20.81	36.55
5	110632	20.91	36.55
5	111197	21.01	36.55
5	111754	21.11	36.55
5	112311	21.21	36.55
5	112868	21.31	36.55
5	113425	21.41	36.55
5	113982	21.51	36.55
5	114539	21.61	36.55
5	115096	21.71	36.55
5	115653	21.81	36.55
5	116210	21.91	36.55
5	116775	22.01	36.55
5	117332	22.11	36.55
5	117889	22.21	36.55
5	118446	22.31	36.55
5	119003	22.41	36.55
5	119560	22.51	36.55
5	120117	22.61	36.55
5	120674	22.71	36.55
5	121231	22.81	36.55
5	121788	22.91	36.55
5	122353	23.01	36.55
5	122910	23.11	36.55
5	123467	23.21	36.55
5	124024	23.31	36.55
5	124581	23.41	36.55
5	125138	23.51	36.55
5	125695	23.61	36.55
5	126252	23.71	36.55
5	126809	23.81	36.55
5	127366	23.91	36.55
5	127931	24.01	36.55
5	128488	24.11	36.55
5	129045	24.21	36.55
5	129602	24.31	36.55
5	130159	24.41	36.55
5	130716	24.51	36.55
5	131273	24.61	36.55
5	131830	24.71	36.55
5	132387	24.81	36.55
5	132944	24.91	36.55
5	133509	25.01	36.55
5	134066	25.11	36.55
5	134623	25.21	36.55
5	135180	25.31	36.55
5	135737	25.41	36.55
5	136294	25.51	36.55
5	136851	25.61	36.55
5	137408	25.71	36.55
5	137965	25.81	36.55
5	138522	25.91	36.55
5	139087	26.01	36.55
5	139644	26.11	36.55
5	140201	26.21	36.55
5	140758	26.31	36.55
5	141315	26.41	36.55
5	141872	26.51	36.55
5	142429	26.61	36.55
5	142986	26.71	36.55
5	143543	26.81	36.55
5	144100	26.91	36.55
5	144665	27.01	36.55
5	145222	27.11	36.55
5	145779	27.21	36.55
5	146336	27.31	36.55
5	146893	27.41	36.55
5	147450	27.51	36.55
5	148007	27.61	36.55
5	148564	27.71	36.55
5	149121	27.81	36.55
5	149678	27.91	36.55
5	150243	28.01	36.55
5	150800	28.11	36.55
5	151357	28.21	36.55
5	151914	28.31	36.55
5	152471	28.41	36.55
5	153028	28.51	36.55
5	153585	28.61	36.55
5	154142	28.71	36.55
5	154699	28.81	36.55
5	155256	28.91	36.55
5	155821	29.01	36.55
5	156378	29.11	36.55
5	156935	29.21	36.55
5	157492	29.31	36.55
5	158049	29.41	36.55
5	158606	29.51	36.55
5	159163	29.61	36.55
5	159720	29.71	36.55
5	160277	29.81	36.55
5	160834	29.91	36.55
5	161399	30.01	36.55
5	161956	30.11	36.55
5	162513	30.21	36.55
5	163070	30.31	36.55
5	163627	30.41	36.55
5	164184	30.51	36.55
5	164741	30.61	36.55
5	165298	30.71	36.55
5	165855	30.81	36.55
5	166412	30.91	36.55
5	166977	31.01	36.55
5	167534	31.11	36.55
5	168091	31.21	36.55
5	168648	31.31	36.55
5	169205	31.41	36.55
5	169762	31.51	36.55
5	170319	31.61	36.55
5	170876	31.71	36.55
5	171433	31.81	36.55
5	171990	31.91	36.55
5	172555	32.01	36.55
5	173112	32.11	36.55
5	173669	32.21	36.55
5	174226	32.31	36.55
5	174783	32.41	36.55
5	175340	32.51	36.55
5	175897	32.61	36.55
5	176454	32.71	36.55
5	177011	32.81	36.55
5	177568	32.91	36.55
5	178133	33.01	36.55
5	178690	33.11	36.55
5	179247	33.21	36.55
5	179804	33.31	36.55
5	180361	33.41	36.55
5	180918	33.51	36.55
5	181475	33.61	36.55
5	182032	33.71	36.55
5	182589	33.81	36.55
5	183146	33.91	36.55
5	183711	34.01	36.55
5	184268	34.11	36.55
5	184825	34.21	36.55
5	185382	34.31	36.55
5	185939	34.41	36.55
5	186496	34.51	36.55
5	187053	34.61	36.55
5	187610	34.71	36.55
5	188167	34.81	36.55
5	188724	34.91	36.55
5	189289	35.01	36.55
5	189846	35.11	36.55
5	190403	35.21	36.55
5	190960	35.31	36.55
5	191517	35.41	36.55
5	192074	35.51	36.55
5	192631	35.61	36.55
4	232	1.11	126.60853309671
4	788	1.21	129.94186630553
4	1344	1.31	133.27519951842
4	1900	1.41	136.60853273682
4	2456	1.51	139.94186596179
4	3012	1.61	143.27519919409
4	3568	1.71	146.60853243423
4	4124	1.81	149.94186568247
4	4680	1.91	153.27519893887
4	5244	2.01	156.60853220335
4	5800	2.11	159.9418654757
4	6356	2.21	163.27519875559
4	6912	2.31	166.60853204263
4	7468	2.41	169.94186533636
4	8024	2.51	173.2751986363
4	8580	2.61	176.60853194192
4	9136	2.71	179.9418652527
4	9692	2.81	183.27519856813
4	10248	2.91	186.60853188768
4	10812	3.01	189.94186521086
4	11368	3.11	193.2751985372
4	11924	3.21	196.60853186627
4	12480	3.31	199.94186519764
4	13036	3.41	203.27519853094
4	13592	3.51	206.60853186582
4	14148	3.61	209.94186520197
4	14704	3.71	213.27519853912
4	15260	3.81	216.608531877
4	15816	3.91	219.94186521542
4	16380	4.01	223.27519855418
4	16936	4.11	226.60853189313
4	17492	4.21	229.94186523213
4	18048	4.31	233.27519857106
4	18604	4.41	236.60853190985
4	19160	4.51	239.94186524841
4	19716	4.61	243.2751985867
4	20272	4.71	246.60853192468
4	20828	4.81	249.94186526231
4	21384	4.91	253.27519859959
4	21949	5.01	256.6085319365
4	22506	5.11	259.94186663834
4	23063	5.21	263.27542784153
4	23620	5.31	266.60998913776
4	24177	5.41	269.94677515469
4	24734	5.51	273.28733587606
4	25291	5.61	276.63340616434
4	25848	5.71	279.98667150407
4	26405	5.81	283.34853393575
4	26962	5.91	286.72014375268
4	27527	6.01	290.10244459604
4	28084	6.11	293.49621058025
4	28641	6.21	296.90207674877
4	29198	6.31	300.32056405843
4	29755	6.41	303.75209987525
4	30312	6.51	307.19703475657
4	30869	6.61	310.65562645231
4	31426	6.71	314.12782852953
4	31983	6.81	317.61311447168
4	32540	6.91	321.11049550243
4	33105	7.01	324.61855690898
4	33662	7.11	328.13550157683
4	34219	7.21	331.65919958004
4	34776	7.31	335.18724265925
4	35333	7.41	338.71700287752
4	35890	7.51	342.24576730759
4	36447	7.61	345.77103814313
4	37004	7.71	349.29074823882
4	37561	7.81	352.80320181554
4	38118	7.91	356.30700774374
4	38683	8.01	359.80102481269
4	39240	8.11	363.28431683209
4	39797	8.21	366.75611579983
4	40354	8.31	370.21579168667
4	40911	8.41	373.6628276492
4	41468	8.51	377.09679969582
4	42025	8.61	380.51736000573
4	42582	8.71	383.92422324473
4	43139	8.81	387.31715533938
4	43696	8.91	390.69596426797
4	44261	9.01	394.06049250577
4	44818	9.11	397.41061082767
4	45375	9.21	400.74621322405
4	45932	9.31	404.06721273011
4	46489	9.41	407.37353800442
4	47046	9.51	410.66513278497
4	47603	9.61	413.94219237215
4	48160	9.71	417.20557808725
4	48717	9.81	420.4567816927
4	49274	9.91	423.69782030153
4	49839	10.01	426.93113175325
4	50396	10.11	430.1594717647
4	50953	10.21	433.38581309513
4	51510	10.31	436.61308395847
4	52067	10.41	439.84380566385
4	52624	10.51	443.08005303715
4	53181	10.61	446.32352815822
4	53738	10.71	449.5756273254
4	54295	10.81	452.83749598963
4	54852	10.91	456.11007381968
4	55417	11.01	459.39413167118
4	55974	11.11	462.69030191428
4	56531	11.21	465.99910331274
4	57088	11.31	469.32096143351
4	57645	11.41	472.65622538974
4	58202	11.51	476.0051815758
4	58759	11.61	479.36806493483
4	59316	11.71	482.74506820202
4	59873	11.81	486.13634948737
4	60430	11.91	489.54202369673
4	60995	12.01	492.96188580035
4	61552	12.11	496.39509048224
4	62109	12.21	499.84020864107
4	62666	12.31	503.29531438621
4	63223	12.41	506.75807382892
4	63780	12.51	510.22583430559
4	64337	12.61	513.69571360803
4	64894	12.71	517.16482298711
4	65451	12.81	520.63061666839
4	66008	12.91	524.09099554712
4	66573	13.01	527.54423762628
4	67130	13.11	530.98893026855
4	67687	13.21	534.42391461929
4	68244	13.31	537.84824001409
4	68801	13.41	541.26112657699
4	69358	13.51	544.6619345381
4	69915	13.61	548.05013906325
4	70472	13.71	551.42530960565
4	71029	13.81	554.78709296695
4	71586	13.91	558.13519940149
4	72151	14.01	561.46939121692
4	72708	14.11	564.78947342272
4	73265	14.21	568.09528605874
4	73822	14.31	571.38669790195
4	74379	14.41	574.66360208482
4	74936	14.51	577.92606514518
4	75493	14.61	581.17470238909
4	76050	14.71	584.41075755113
4	76607	14.81	587.63601644866
4	77164	14.91	590.85271256589
4	77729	15.01	594.06343250491
4	78286	15.11	597.27102218408
4	78843	15.21	600.47842447718
4	79400	15.31	603.68834853741
4	79957	15.41	606.90303610052
4	80514	15.51	610.12432617063
4	81071	15.61	613.35372737162
4	81628	15.71	616.59247730056
4	82185	15.81	619.84159121806
4	82742	15.91	623.10190199148
4	83307	16.01	626.3740928621
4	83864	16.11	629.65872432577
4	84421	16.21	632.95625618429
4	84978	16.31	636.26706563532
4	85535	16.41	639.59146211227
4	86092	16.51	642.92969945834
4	86649	16.61	646.28198591337
4	87206	16.71	649.64849230655
4	87763	16.81	653.02935877732
4	88320	16.91	656.42469927435
4	88885	17.01	659.83441729366
4	89442	17.11	663.257814465
4	89999	17.21	666.6935771271
4	90556	17.31	670.13986598315
4	91113	17.41	673.59440852109
4	91670	17.51	677.05459166636
4	92227	17.61	680.51755395154
4	92784	17.71	683.98036973155
4	93341	17.81	687.44038674222
4	93898	17.91	690.89541301173
4	94463	18.01	694.34365035971
4	95020	18.11	697.78362365195
4	95577	18.21	701.2141227646
4	96134	18.31	704.63415497465
4	96691	18.41	708.04290590343
4	97248	18.51	711.43970747681
4	97805	18.61	714.82401164128
4	98362	18.71	718.19536880212
4	98919	18.81	721.55341013503
4	99476	18.91	724.89783307564
4	100041	19.01	728.22838941577
4	100598	19.11	731.54487553827
4	101155	19.21	734.84712440617
4	101712	19.31	738.13499899094
4	102269	19.41	741.40838780023
4	102826	19.51	744.66737599993
4	103383	19.61	747.91263112703
4	103940	19.71	751.14544091571
4	104497	19.81	754.36762482568
4	105054	19.91	757.58144088358
4	105619	20.01	760.78949232866
4	106176	20.11	763.99463483916
4	106733	20.21	767.19980040706
4	107290	20.31	770.40766232849
4	107847	20.41	773.62043097445
4	108404	20.51	776.83991961905
4	108961	20.61	780.06761577859
4	109518	20.71	783.30473973458
4	110075	20.81	786.55229254284
4	110632	20.91	789.81109541785
4	111197	21.01	793.08182204149
4	111754	21.11	796.36502506754
4	112311	21.21	799.66115786461
4	112868	21.31	802.97059235285
4	113425	21.41	806.29363363632
4	113982	21.51	809.63053200664
4	114539	21.61	812.98149279009
4	115096	21.71	816.34668442575
4	115653	21.81	819.72624509232
4	116210	21.91	823.12028719583
4	116775	22.01	826.52872144405
4	117332	22.11	829.95086887726
4	117889	22.21	833.38543213524
4	118446	22.31	836.83058439092
4	119003	22.41	840.28406223535
4	119560	22.51	843.74325877197
4	120117	22.61	847.20531616629
4	120674	22.71	850.66730477097
4	121231	22.81	854.12655908099
4	121788	22.91	857.58087554152
4	122353	23.01	861.02844647012
4	122910	23.11	864.46778893756
4	123467	23.21	867.89768642538
4	124024	23.31	871.31714096472
4	124581	23.41	874.72533387353
4	125138	23.51	878.12159354739
4	125695	23.61	881.50536903673
4	126252	23.71	884.87620837102
4	126809	23.81	888.23374077702
4	127366	23.91	891.5776620915
4	127931	24.01	894.90772279471
4	128488	24.11	898.22371819352
4	129045	24.21	901.52548036827
4	129602	24.31	904.81287156637
4	130159	24.41	908.08577972025
4	130716	24.51	911.34429259048
4	131273	24.61	914.58908489771
4	131830	24.71	917.8214504298
4	132387	24.81	921.04321327968
4	132944	24.91	924.25663485877
4	133509	25.01	927.46432070625
4	134066	25.11	930.66912785628
4	134623	25.21	933.87398682608
4	135180	25.31	937.08156601172
4	135737	25.41	940.29407149731
4	136294	25.51	943.51331304018
4	136851	25.61	946.7407752717
4	137408	25.71	949.97767610667
4	137965	25.81	953.22501465945
4	138522	25.91	956.48361055177
4	139087	26.01	959.75413615897
4	139644	26.11	963.03714306297
4	140201	26.21	966.33308375309
4	140758	26.31	969.64232942817
4	141315	26.41	972.96518460054
4	141872	26.51	976.30189907638
4	142429	26.61	979.65267778375
4	142986	26.71	983.01768883506
4	143543	26.81	986.39707014102
4	144100	26.91	989.79093389477
4	144665	27.01	993.19919176736
4	145222	27.11	996.62116746498
4	145779	27.21	1000.0555658741
4	146336	27.31	1003.5005618871
4	146893	27.41	1006.9538933512
4	147450	27.51	1010.4129542236
4	148007	27.61	1013.8748871731
4	148564	27.71	1017.3367620053
4	149121	27.81	1020.795911397
4	149678	27.91	1024.2501302027
4	150243	28.01	1027.697609435
4	150800	28.11	1031.1368650943
4	151357	28.21	1034.566679784
4	151914	28.31	1037.9860548147
4	152471	28.41	1041.3941709135
4	153028	28.51	1044.7903559911
4	153585	28.61	1048.1740587003
4	154142	28.71	1051.5448267442
4	154699	28.81	1054.9022890821
4	155256	28.91	1058.246141331
4	155821	29.01	1061.5761337911
4	156378	29.11	1064.8920616215
4	156935	29.21	1068.1937567814
4	157492	29.31	1071.4810814187
4	158049	29.41	1074.7539233868
4	158606	29.51	1078.0123708039
4	159163	29.61	1081.2570993798
4	159720	29.71	1084.4894037363
4	160277	29.81	1087.7111086043
4	160834	29.91	1090.9244758614
4	161399	30.01	1094.1321113637
4	161956	30.11	1097.336872332
4	162513	30.21	1100.5416890806
4	163070	30.31	1103.7492293308
4	163627	30.41	1106.9616985765
4	164184	30.51	1110.1809060907
4	164741	30.61	1113.4083361075
4	165298	30.71	1116.6452062158
4	165855	30.81	1119.8925152627
4	166412	30.91	1123.1510826507
4	166977	31.01	1126.421580575
4	167534	31.11	1129.7045604701
4	168091	31.21	1133.0004747041
4	168648	31.31	1136.3096943767
4	169205	31.41	1139.6325239186
4	169762	31.51	1142.9692130692
4	170319	31.61	1146.3199667018
4	170876	31.71	1149.6849528837
4	171433	31.81	1153.0643094887
4	171990	31.91	1156.4581486807
4	172555	32.01	1159.8663822635
4	173112	32.11	1163.2883343102
4	173669	32.21	1166.7227100168
4	174226	32.31	1170.1676845126
4	174783	32.41	1173.6209958177
4	175340	32.51	1177.0800380068
4	175897	32.61	1180.5419538181
4	176454	32.71	1184.0038129819
4	177011	32.81	1187.4629479245
4	177568	32.91	1190.9171532815
4	178133	33.01	1194.3646198857
4	178690	33.11	1197.80386359
4	179247	33.21	1201.2336668769
4	179804	33.31	1204.6530309579
4	180361	33.41	1208.0611364786
4	180918	33.51	1211.457311283
4	181475	33.61	1214.8410039691
4	182032	33.71	1218.2117621951
4	182589	33.81	1221.5692148833
4	183146	33.91	1224.9130576207
4	183711	34.01	1228.2430406825
4	184268	34.11	1231.5589592076
4	184825	34.21	1234.8606451384
4	185382	34.31	1238.1479606091
4	185939	34.41	1241.4207934623
4	186496	34.51	1244.6792318653
4	187053	34.61	1247.9239516644
4	187610	34.71	1251.1562475959
4	188167	34.81	1254.3779444787
4	188724	34.91	1257.5913042548
4	189289	35.01	1260.7989328236
4	189846	35.11	1264.0036874319
4	190403	35.21	1267.2084983659
4	190960	35.31	1270.416033254
4	191517	35.41	1273.6284975088
4	192074	35.51	1276.8477003366
4	192631	35.61	1280.0751259169
3	232	1.11	33.333332070582
3	788	1.21	33.333332100049
3	1344	1.31	33.333332146342
3	1900	1.41	33.333332205608
3	2456	1.51	33.333332274454
3	3012	1.61	33.333332349923
3	3568	1.71	33.333332429473
3	4124	1.81	33.333332510943
3	4680	1.91	33.333332592527
3	5244	2.01	33.333332672741
3	5800	2.11	33.333332750393
3	6356	2.21	33.33333282455
3	6912	2.31	33.33333289451
3	7468	2.41	33.333332959772
3	8024	2.51	33.33333302001
3	8580	2.61	33.333333075046
3	9136	2.71	33.333333124827
3	9692	2.81	33.333333169405
3	10248	2.91	33.333333208914
3	10812	3.01	33.333333243557
3	11368	3.11	33.333333273586
3	11924	3.21	33.333333299293
3	12480	3.31	33.333333320991
3	13036	3.41	33.333333339013
3	13592	3.51	33.333333353695
3	14148	3.61	33.333333365375
3	14704	3.71	33.333333374381
3	15260	3.81	33.333333381033
3	15816	3.91	33.333333385635
3	16380	4.01	33.333333388471
3	16936	4.11	33.33333338981
3	17492	4.21	33.333333389894
3	18048	4.31	33.33333338895
3	18604	4.41	33.333333387177
3	19160	4.51	33.333333384757
3	19716	4.61	33.333333381849
3	20272	4.71	33.333333378594
3	20828	4.81	33.333333375112
3	21384	4.91	33.333333371506
3	21949	5.01	33.333333367863
3	22506	5.11	33.333401628544
3	23063	5.21	33.337615197889
3	23620	5.31	33.351331457648
3	24177	5.41	33.378611875711
3	24734	5.51	33.422277525915
3	25291	5.61	33.483619363034
3	25848	5.71	33.560883289289
3	26405	5.81	33.651214374853
3	26962	5.91	33.75226508234
3	27527	6.01	33.862109613447
3	28084	6.11	33.97916814281
3	28641	6.21	34.102144663378
3	29198	6.31	34.229975997969
3	29755	6.41	34.36178997099
3	30312	6.51	34.49686951103
3	30869	6.61	34.63394454499
3	31426	6.71	34.768907460539
3	31983	6.81	34.896940693623
3	32540	6.91	35.013537294543
3	33105	7.01	35.114580456764
3	33662	7.11	35.196411611993
3	34219	7.21	35.255886909516
3	34776	7.31	35.290421999417
3	35333	7.41	35.298048086563
3	35890	7.51	35.278759124112
3	36447	7.61	35.23598770154
3	37004	7.71	35.17395248273
3	37561	7.81	35.096114241429
3	38118	7.91	35.005312017494
3	38683	8.01	34.903874812445
3	39240	8.11	34.79371321872
3	39797	8.21	34.676394587578
3	40354	8.31	34.553204692958
3	40911	8.41	34.425198317326
3	41468	8.51	34.293240749685
3	42025	8.61	34.158041828395
3	42582	8.71	34.020183868152
3	43139	8.81	33.880144569824
3	43696	8.91	33.738315814505
3	44261	9.01	33.595019081188
3	44818	9.11	33.450518094614
3	45375	9.21	33.30502920093
3	45932	9.31	33.158729879327
3	46489	9.41	33.011765724558
3	47046	9.51	32.864353863035
3	47603	9.61	32.721012496936
3	48160	9.71	32.588643994693
3	48717	9.81	32.473185082585
3	49274	9.91	32.37952165218
3	49839	10.01	32.31149760861
3	50396	10.11	32.271937243073
3	50953	10.21	32.262628456892
3	51510	10.31	32.281431757463
3	52067	10.41	32.323804768138
3	52624	10.51	32.385513150424
3	53181	10.61	32.463083271939
3	53738	10.71	32.553665544264
3	54295	10.81	32.654922312383
3	54852	10.91	32.764935884979
3	55417	11.01	32.88213308724
3	55974	11.11	33.005223367884
3	56531	11.21	33.13314802536
3	57088	11.31	33.265038555652
3	57645	11.41	33.400182482965
3	58202	11.51	33.537995328993
3	58759	11.61	33.677997617952
3	59316	11.71	33.819796012697
3	59873	11.81	33.96306783977
3	60430	11.91	34.107141747152
3	60995	12.01	34.246982852793
3	61552	12.11	34.376202942323
3	62109	12.21	34.489264817717
3	62666	12.31	34.581509590607
3	63223	12.41	34.649169726167
3	63780	12.51	34.689368787218
3	64337	12.61	34.7001510107
3	64894	12.71	34.682882928545
3	65451	12.81	34.641769331689
3	66008	12.91	34.581094107388
3	66573	13.01	34.504371535269
3	67130	13.11	34.414484548651
3	67687	13.21	34.313798156979
3	68244	13.31	34.204252491731
3	68801	13.41	34.087439136468
3	69358	13.51	33.964663744057
3	69915	13.61	33.836997404607
3	70472	13.71	33.705318785069
3	71029	13.81	33.570348698382
3	71586	13.91	33.432678462216
3	72151	14.01	33.292793163015
3	72708	14.11	33.151090740619
3	73265	14.21	33.0078976443
3	73822	14.31	32.863481676162
3	74379	14.41	32.718101580034
3	74936	14.51	32.574886427257
3	75493	14.61	32.440114751869
3	76050	14.71	32.319814522883
3	76607	14.81	32.219077485442
3	77164	14.91	32.142048757657
3	77729	15.01	32.091930244201
3	78286	15.11	32.070975264143
3	78843	15.21	32.079224413257
3	79400	15.31	32.112939343728
3	79957	15.41	32.167545084638
3	80514	15.51	32.239288566376
3	81071	15.61	32.325090964666
3	81628	15.71	32.422426571247
3	82185	15.81	32.529223425642
3	82742	15.91	32.643781798595
3	83307	16.01	32.764707320103
3	83864	16.11	32.890856121102
3	84421	16.21	33.021289830551
3	84978	16.31	33.155238657363
3	85535	16.41	33.292071104728
3	86092	16.51	33.43126912531
3	86649	16.61	33.572407739859
3	87206	16.71	33.715138317369
3	87763	16.81	33.859174858989
3	88320	16.91	34.00423217336
3	88885	17.01	34.146527003479
3	89442	17.11	34.279561763556
3	89999	17.21	34.397486339902
3	90556	17.31	34.49536634699
3	91113	17.41	34.569194390325
3	91670	17.51	34.615887710296
3	92227	17.61	34.633302198405
3	92784	17.71	34.621906345921
3	93341	17.81	34.585610022692
3	93898	17.91	34.528886640621
3	94463	18.01	34.455405955556
3	95020	18.11	34.368178445471
3	95577	18.21	34.269673750852
3	96134	18.31	34.161917837073
3	96691	18.41	34.046572701384
3	97248	18.51	33.925001760404
3	97805	18.61	33.798323490638
3	98362	18.71	33.667455432386
3	98919	18.81	33.533150288272
3	99476	18.91	33.396025536615
3	100041	19.01	33.256587724703
3	100598	19.11	33.115252397745
3	101155	19.21	32.972360447543
3	101712	19.31	32.828191524111
3	102269	19.41	32.683020974216
3	102826	19.51	32.540389451904
3	103383	19.61	32.406715289624
3	103940	19.71	32.287914451662
3	104497	19.81	32.188979592244
3	105054	19.91	32.113969109672
3	105619	20.01	32.066009892824
3	106176	20.11	32.047286503659
3	106733	20.21	32.057518927939
3	107290	20.31	32.092860834819
3	107847	20.41	32.148801263061
3	108404	20.51	32.221639653283
3	108961	20.61	32.308340257886
3	109518	20.71	32.406412706488
3	110075	20.81	32.513814027983
3	110632	20.91	32.628868274494
3	111197	21.01	32.750200585031
3	111754	21.11	32.87668309472
3	112311	21.21	33.007390561525
3	112868	21.31	33.141563964718
3	113425	21.41	33.278580642935
3	113982	21.51	33.417929796984
3	114539	21.61	33.559192393615
3	115096	21.71	33.702024679617
3	115653	21.81	33.846144657624
3	116210	21.91	33.99127355855
3	116775	22.01	34.133781378533
3	117332	22.11	34.267219468202
3	117889	22.21	34.385696284949
3	118446	22.31	34.484240786262
3	119003	22.41	34.558813492781
3	119560	22.51	34.606303886233
3	120117	22.61	34.624542412731
3	120674	22.71	34.61387898274
3	121231	22.81	34.578183501056
3	121788	22.91	34.521953018326
3	122353	23.01	34.448876682398
3	122910	23.11	34.361980879439
3	123467	23.21	34.263748300197
3	124024	23.31	34.156215615805
3	124581	23.41	34.041053605964
3	125138	23.51	33.919632891962
3	125695	23.61	33.793077860643
3	126252	23.71	33.66231090084
3	126809	23.81	33.528088692668
3	127366	23.91	33.391031977369
3	127931	24.01	33.251649978969
3	128488	24.11	33.110360438529
3	129045	24.21	32.967506049221
3	129602	24.31	32.823367938803
3	130159	24.41	32.67822360761
3	130716	24.51	32.535669905051
3	131273	24.61	32.402144231196
3	131830	24.71	32.283547191314
3	132387	24.81	32.184857847866
3	132944	24.91	32.110122700925
3	133509	25.01	32.062458343834
3	134066	25.11	32.044039899942
3	134623	25.21	32.054543396576
3	135180	25.31	32.090107677201
3	135737	25.41	32.146230529366
3	136294	25.51	32.219218570743
3	136851	25.61	32.306041941417
3	137408	25.71	32.404215100957
3	137965	25.81	32.511699040498
3	138522	25.91	32.626821062583
3	139087	26.01	32.748208972697
3	139644	26.11	32.874737093404
3	140201	26.21	33.00548197713
3	140758	26.31	33.139686075231
3	141315	26.41	33.276727933964
3	141872	26.51	33.416097744805
3	142429	26.61	33.557377287201
3	142986	26.71	33.700223474632
3	143543	26.81	33.844354856653
3	144100	26.91	33.989493462117
3	144665	27.01	34.132030137959
3	145222	27.11	34.265523309485
3	145779	27.21	34.384075734601
3	146336	27.31	34.482711327072
3	146893	27.41	34.557386192231
3	147450	27.51	34.604985991209
3	148007	27.61	34.623337667502
3	148564	27.71	34.612774819361
3	149121	27.81	34.577161849829
3	149678	27.91	34.520999055801
3	150243	28.01	34.447978248185
3	150800	28.11	34.361127997782
3	151357	28.21	34.262932787503
3	151914	28.31	34.155430758675
3	152471	28.41	34.040293897074
3	153028	28.51	33.918893813388
3	153585	28.61	33.792355706113
3	154142	28.71	33.661602629922
3	154699	28.81	33.527391811146
3	155256	28.91	33.39034443912
3	155821	29.01	33.250970105458
3	156378	29.11	33.109686852772
3	156935	29.21	32.966837621612
3	157492	29.31	32.822703742673
3	158049	29.41	32.677563012382
3	158606	29.51	32.53502001788
3	159163	29.61	32.401514784645
3	159720	29.71	32.282945802856
3	160277	29.81	32.184290263234
3	160834	29.91	32.109593027321
3	161399	30.01	32.061969270629
3	161956	30.11	32.043592816673
3	162513	30.21	32.054133639286
3	163070	30.31	32.089728540214
3	163627	30.41	32.145876511694
3	164184	30.51	32.218885159657
3	164741	30.61	32.305725434909
3	165298	30.71	32.403912462091
3	165855	30.81	32.511407777928
3	166412	30.91	32.626539132538
3	166977	31.01	32.747934698574
3	167534	31.11	32.874469099802
3	168091	31.21	33.005219135744
3	168648	31.31	33.139427460457
3	169205	31.41	33.276472786482
3	169762	31.51	33.415845441712
3	170319	31.61	33.557127317498
3	170876	31.71	33.69997541912
3	171433	31.81	33.844108371445
3	171990	31.91	33.989248313206
3	172555	32.01	34.131788962834
3	173112	32.11	34.265289719931
3	173669	32.21	34.383852557486
3	174226	32.31	34.482500694658
3	174783	32.41	34.557189628713
3	175340	32.51	34.604804494622
3	175897	32.61	34.623171753508
3	176454	32.71	34.612622757152
3	177011	32.81	34.577021150908
3	177568	32.91	34.520867678733
3	178133	33.01	34.447854518284
3	178690	33.11	34.361010541222
3	179247	33.21	34.262820477267
3	179804	33.31	34.155322670218
3	180361	33.41	34.040189271946
3	180918	33.51	33.918792029396
3	181475	33.61	33.792256252841
3	182032	33.71	33.661505088653
3	182589	33.81	33.527295838386
3	183146	33.91	33.390249753082
3	183711	34.01	33.250876474981
3	184268	34.11	33.109594088223
3	184825	34.21	32.966745567426
3	185382	34.31	32.822612271231
3	185939	34.41	32.677472036844
3	186496	34.51	32.534930517026
3	187053	34.61	32.40142809882
3	187610	34.71	32.28286298112
3	188167	34.81	32.184212096876
3	188724	34.91	32.109520081976
3	189289	35.01	32.061901916669
3	189846	35.11	32.043531245463
3	190403	35.21	32.054077208517
3	190960	35.31	32.089676326398
3	191517	35.41	32.145827757247
3	192074	35.51	32.218839243098
3	192631	35.61	32.305681846407
1	232	1.11	0
1	788	1.21	0
1	1344	1.31	0
1	1900	1.41	0
1	2456	1.51	0
1	3012	1.61	0
1	3568	1.71	0
1	4124	1.81	0
1	4680	1.91	0
1	5244	2.01	0
1	5800	2.11	0
1	6356	2.21	0
1	6912	2.31	0
1	7468	2.41	0
1	8024	2.51	0
1	8580	2.61	0
1	9136	2.71	0
1	9692	2.81	0
1	10248	2.91	0
1	10812	3.01	0
1	11368	3.11	0
1	11924	3.21	0
1	12480	3.31	0
1	13036	3.41	0
1	13592	3.51	0
1	14148	3.61	0
1	14704	3.71	0
1	15260	3.81	0
1	15816	3.91	0
1	16380	4.01	0
1	16936	4.11	0
1	17492	4.21	0
1	18048	4.31	0
1	18604	4.41	0
1	19160	4.51	0
1	19716	4.61	0
1	20272	4.71	0
1	20828	4.81	0
1	21384	4.91	0
1	21949	5.01	0
1	22506	5.11	0
1	23063	5.21	0
1	23620	5.31	0
1	24177	5.41	0
1	24734	5.51	0
1	25291	5.61	0
1	25848	5.71	0
1	26405	5.81	0
1	26962	5.91	0
1	27527	6.01	0
1	28084	6.11	0
1	28641	6.21	0
1	29198	6.31	0
1	29755	6.41	0
1	30312	6.51	0
1	30869	6.61	0
1	31426	6.71	0
1	31983	6.81	0
1	32540	6.91	0
1	33105	7.01	0
1	33662	7.11	0
1	34219	7.21	0
1	34776	7.31	0
1	35333	7.41	0
1	35890	7.51	0
1	36447	7.61	0
1	37004	7.71	0
1	37561	7.81	0
1	38118	7.91	0
1	38683	8.01	0
1	39240	8.11	0
1	39797	8.21	0
1	40354	8.31	0
1	40911	8.41	0
1	41468	8.51	0
1	42025	8.61	0
1	42582	8.71	0
1	43139	8.81	0
1	43696	8.91	0
1	44261	9.01	0
1	44818	9.11	0
1	45375	9.21	0
1	45932	9.31	0
1	46489	9.41	0
1	47046	9.51	0
1	47603	9.61	0
1	48160	9.71	0
1	48717	9.81	0
1	49274	9.91	0
1	49839	10.01	0
1	50396	10.11	0
1	50953	10.21	0
1	51510	10.31	0
1	52067	10.41	0
1	52624	10.51	0
1	53181	10.61	0
1	53738	10.71	0
1	54295	10.81	0
1	54852	10.91	0
1	55417	11.01	0
1	55974	11.11	0
1	56531	11.21	0
1	57088	11.31	0
1	57645	11.41	0
1	58202	11.51	0
1	58759	11.61	0
1	59316	11.71	0
1	59873	11.81	0
1	60430	11.91	0
1	60995	12.01	0
1	61552	12.11	0
1	62109	12.21	0
1	62666	12.31	0
1	63223	12.41	0
1	63780	12.51	0
1	64337	12.61	0
1	64894	12.71	0
1	65451	12.81	0
1	66008	12.91	0
1	66573	13.01	0
1	67130	13.11	0
1	67687	13.21	0
1	68244	13.31	0
1	68801	13.41	0
1	69358	13.51	0
1	69915	13.61	0
1	70472	13.71	0
1	71029	13.81	0
1	71586	13.91	0
1	72151	14.01	0
1	72708	14.11	0
1	73265	14.21	0
1	73822	14.31	0
1	74379	14.41	0
1	74936	14.51	0
1	75493	14.61	0
1	76050	14.71	0
1	76607	14.81	0
1	77164	14.91	0
1	77729	15.01	0
1	78286	15.11	0
1	78843	15.21	0
1	79400	15.31	0
1	79957	15.41	0
1	80514	15.51	0
1	81071	15.61	0
1	81628	15.71	0
1	82185	15.81	0
1	82742	15.91	0
1	83307	16.01	0
1	83864	16.11	0
1	84421	16.21	0
1	84978	16.31	0
1	85535	16.41	0
1	86092	16.51	0
1	86649	16.61	0
1	87206	16.71	0
1	87763	16.81	0
1	88320	16.91	0
1	88885	17.01	0
1	89442	17.11	0
1	89999	17.21	0
1	90556	17.31	0
1	91113	17.41	0
1	91670	17.51	0
1	92227	17.61	0
1	92784	17.71	0
1	93341	17.81	0
1	93898	17.91	0
1	94463	18.01	0
1	95020	18.11	0
1	95577	18.21	0
1	96134	18.31	0
1	96691	18.41	0
1	97248	18.51	0
1	97805	18.61	0
1	98362	18.71	0
1	98919	18.81	0
1	99476	18.91	0
1	100041	19.01	0
1	100598	19.11	0
1	101155	19.21	0
1	101712	19.31	0
1	102269	19.41	0
1	102826	19.51	0
1	103383	19.61	0
1	103940	19.71	0
1	104497	19.81	0
1	105054	19.91	0
1	105619	20.01	0
1	106176	20.11	0
1	106733	20.21	0
1	107290	20.31	0
1	107847	20.41	0
1	108404	20.51	0
1	108961	20.61	0
1	109518	20.71	0
1	110075	20.81	0
1	110632	20.91	0
1	111197	21.01	0
1	111754	21.11	0
1	112311	21.21	0
1	112868	21.31	0
1	113425	21.41	0
1	113982	21.51	0
1	114539	21.61	0
1	115096	21.71	0
1	115653	21.81	0
1	116210	21.91	0
1	116775	22.01	0
1	117332	22.11	0
1	117889	22.21	0
1	118446	22.31	0
1	119003	22.41	0
1	119560	22.51	0
1	120117	22.61	0
1	120674	22.71	0
1	121231	22.81	0
1	121788	22.91	0
1	122353	23.01	0
1	122910	23.11	0
1	123467	23.21	0
1	124024	23.31	0
1	124581	23.41	0
1	125138	23.51	0
1	125695	23.61	0
1	126252	23.71	0
1	126809	23.81	0
1	127366	23.91	0
1	127931	24.01	0
1	128488	24.11	0
1	129045	24.21	0
1	129602	24.31	0
1	130159	24.41	0
1	130716	24.51	0
1	131273	24.61	0
1	131830	24.71	0
1	132387	24.81	0
1	132944	24.91	0
1	133509	25.01	0
1	134066	25.11	0
1	134623	25.21	0
1	135180	25.31	0
1	135737	25.41	0
1	136294	25.51	0
1	136851	25.61	0
1	137408	25.71	0
1	137965	25.81	0
1	138522	25.91	0
1	139087	26.01	0
1	139644	26.11	0
1	140201	26.21	0
1	140758	26.31	0
1	141315	26.41	0
1	141872	26.51	0
1	142429	26.61	0
1	142986	26.71	0
1	143543	26.81	0
1	144100	26.91	0
1	144665	27.01	0
1	145222	27.11	0
1	145779	27.21	0
1	146336	27.31	0
1	146893	27.41	0
1	147450	27.51	0
1	148007	27.61	0
1	148564	27.71	0
1	149121	27.81	0
1	149678	27.91	0
1	150243	28.01	0
1	150800	28.11	0
1	151357	28.21	0
1	151914	28.31	0
1	152471	28.41	0
1	153028	28.51	0
1	153585	28.61	0
1	154142	28.71	0
1	154699	28.81	0
1	155256	28.91	0
1	155821	29.01	0
1	156378	29.11	0
1	156935	29.21	0
1	157492	29.31	0
1	158049	29.41	0
1	158606	29.51	0
1	159163	29.61	0
1	159720	29.71	0
1	160277	29.81	0
1	160834	29.91	0
1	161399	30.01	0
1	161956	30.11	0
1	162513	30.21	0
1	163070	30.31	0
1	163627	30.41	0
1	164184	30.51	0
1	164741	30.61	0
1	165298	30.71	0
1	165855	30.81	0
1	166412	30.91	0
1	166977	31.01	0
1	167534	31.11	0
1	168091	31.21	0
1	168648	31.31	0
1	169205	31.41	0
1	169762	31.51	0
1	170319	31.61	0
1	170876	31.71	0
1	171433	31.81	0
1	171990	31.91	0
1	172555	32.01	0
1	173112	32.11	0
1	173669	32.21	0
1	174226	32.31	0
1	174783	32.41	0
1	175340	32.51	0
1	175897	32.61	0
1	176454	32.71	0
1	177011	32.81	0
1	177568	32.91	0
1	178133	33.01	0
1	178690	33.11	0
1	179247	33.21	0
1	179804	33.31	0
1	180361	33.41	0
1	180918	33.51	0
1	181475	33.61	0
1	182032	33.71	0
1	182589	33.81	0
1	183146	33.91	0
1	183711	34.01	0
1	184268	34.11	0
1	184825	34.21	0
1	185382	34.31	0
1	185939	34.41	0
1	186496	34.51	0
1	187053	34.61	0
1	187610	34.71	0
1	188167	34.81	0
1	188724	34.91	0
1	189289	35.01	0
1	189846	35.11	0
1	190403	35.21	0
1	190960	35.31	0
1	191517	35.41	0
1	192074	35.51	0
1	192631	35.61	0
0	232	1.11	-1
0	788	1.21	-1
0	1344	1.31	-1
0	1900	1.41	-1
0	2456	1.51	-1
0	3012	1.61	-1
0	3568	1.71	-1
0	4124	1.81	-1
0	4680	1.91	-1
0	5244	2.01	-1
0	5800	2.11	-1
0	6356	2.21	-1
0	6912	2.31	-1
0	7468	2.41	-1
0	8024	2.51	-1
0	8580	2.61	-1
0	9136	2.71	-1
0	9692	2.81	-1
0	10248	2.91	-1
0	10812	3.01	-1
0	11368	3.11	-1
0	11924	3.21	-1
0	12480	3.31	-1
0	13036	3.41	-1
0	13592	3.51	-1
0	14148	3.61	-1
0	14704	3.71	-1
0	15260	3.81	-1
0	15816	3.91	-1
0	16380	4.01	-1
0	16936	4.11	-1
0	17492	4.21	-1
0	18048	4.31	-1
0	18604	4.41	-1
0	19160	4.51	-1
0	19716	4.61	-1
0	20272	4.71	-1
0	20828	4.81	-1
0	21384	4.91	-1
0	21949	5.01	-1
0	22506	5.11	-1
0	23063	5.21	-1
0	23620	5.31	-1
0	24177	5.41	-1
0	24734	5.51	-1
0	25291	5.61	-1
0	25848	5.71	-1
0	26405	5.81	-1
0	26962	5.91	-1
0	27527	6.01	-1
0	28084	6.11	-1
0	28641	6.21	-1
0	29198	6.31	-1
0	29755	6.41	-1
0	30312	6.51	-1
0	30869	6.61	-1
0	31426	6.71	-1
0	31983	6.81	-1
0	32540	6.91	-1
0	33105	7.01	-1
0	33662	7.11	-1
0	34219	7.21	-1
0	34776	7.31	-1
0	35333	7.41	-1
0	35890	7.51	-1
0	36447	7.61	-1
0	37004	7.71	-1
0	37561	7.81	-1
0	38118	7.91	-1
0	38683	8.01	-1
0	39240	8.11	-1
0	39797	8.21	-1
0	40354	8.31	-1
0	40911	8.41	-1
0	41468	8.51	-1
0	42025	8.61	-1
0	42582	8.71	-1
0	43139	8.81	-1
0	43696	8.91	-1
0	44261	9.01	-1
0	44818	9.11	-1
0	45375	9.21	-1
0	45932	9.31	-1
0	46489	9.41	-1
0	47046	9.51	-1
0	47603	9.61	-1
0	48160	9.71	-1
0	48717	9.81	-1
0	49274	9.91	-1
0	49839	10.01	-1
0	50396	10.11	-1
0	50953	10.21	-1
0	51510	10.31	-1
0	52067	10.41	-1
0	52624	10.51	-1
0	53181	10.61	-1
0	53738	10.71	-1
0	54295	10.81	-1
0	54852	10.91	-1
0	55417	11.01	-1
0	55974	11.11	-1
0	56531	11.21	-1
0	57088	11.31	-1
0	57645	11.41	-1
0	58202	11.51	-1
0	58759	11.61	-1
0	59316	11.71	-1
0	59873	11.81	-1
0	60430	11.91	-1
0	60995	12.01	-1
0	61552	12.11	-1
0	62109	12.21	-1
0	62666	12.31	-1
0	63223	12.41	-1
0	63780	12.51	-1
0	64337	12.61	-1
0	64894	12.71	-1
0	65451	12.81	-1
0	66008	12.91	-1
0	66573	13.01	-1
0	67130	13.11	-1
0	67687	13.21	-1
0	68244	13.31	-1
0	68801	13.41	-1
0	69358	13.51	-1
0	69915	13.61	-1
0	70472	13.71	-1
0	71029	13.81	-1
0	71586	13.91	-1
0	72151	14.01	-1
0	72708	14.11	-1
0	73265	14.21	-1
0	73822	14.31	-1
0	74379	14.41	-1
0	74936	14.51	-1
0	75493	14.61	-1
0	76050	14.71	-1
0	76607	14.81	-1
0	77164	14.91	-1
0	77729	15.01	-1
0	78286	15.11	-1
0	78843	15.21	-1
0	79400	15.31	-1
0	79957	15.41	-1
0	80514	15.51	-1
0	81071	15.61	-1
0	81628	15.71	-1
0	82185	15.81	-1
0	82742	15.91	-1
0	83307	16.01	-1
0	83864	16.11	-1
0	84421	16.21	-1
0	84978	16.31	-1
0	85535	16.41	-1
0	86092	16.51	-1
0	86649	16.61	-1
0	87206	16.71	-1
0	87763	16.81	-1
0	88320	16.91	-1
0	88885	17.01	-1
0	89442	17.11	-1
0	89999	17.21	-1
0	90556	17.31	-1
0	91113	17.41	-1
0	91670	17.51	-1
0	92227	17.61	-1
0	92784	17.71	-1
0	93341	17.81	-1
0	93898	17.91	-1
0	94463	18.01	-1
0	95020	18.11	-1
0	95577	18.21	-1
0	96134	18.31	-1
0	96691	18.41	-1
0	97248	18.51	-1
0	97805	18.61	-1
0	98362	18.71	-1
0	98919	18.81	-1
0	99476	18.91	-1
0	100041	19.01	-1
0	100598	19.11	-1
0	101155	19.21	-1
0	101712	19.31	-1
0	102269	19.41	-1
0	102826	19.51	-1
0	103383	19.61	-1
0	103940	19.71	-1
0	104497	19.81	-1
0	105054	19.91	-1
0	105619	20.01	-1
0	106176	20.11	-1
0	106733	20.21	-1
0	107290	20.31	-1
0	107847	20.41	-1
0	108404	20.51	-1
0	108961	20.61	-1
0	109518	20.71	-1
0	110075	20.81	-1
0	110632	20.91	-1
0	111197	21.01	-1
0	111754	21.11	-1
0	112311	21.21	-1
0	112868	21.31	-1
0	113425	21.41	-1
0	113982	21.51	-1
0	114539	21.61	-1
0	115096	21.71	-1
0	115653	21.81	-1
0	116210	21.91	-1
0	116775	22.01	-1
0	117332	22.11	-1
0	117889	22.21	-1
0	118446	22.31	-1
0	119003	22.41	-1
0	119560	22.51	-1
0	120117	22.61	-1
0	120674	22.71	-1
0	121231	22.81	-1
0	121788	22.91	-1
0	122353	23.01	-1
0	122910	23.11	-1
0	123467	23.21	-1
0	124024	23.31	-1
0	124581	23.41	-1
0	125138	23.51	-1
0	125695	23.61	-1
0	126252	23.71	-1
0	126809	23.81	-1
0	127366	23.91	-1
0	127931	24.01	-1
0	128488	24.11	-1
0	129045	24.21	-1
0	129602	24.31	-1
0	130159	24.41	-1
0	130716	24.51	-1
0	131273	24.61	-1
0	131830	24.71	-1
0	132387	24.81	-1
0	132944	24.91	-1
0	133509	25.01	-1
0	134066	25.11	-1
0	134623	25.21	-1
0	135180	25.31	-1
0	135737	25.41	-1
0	136294	25.51	-1
0	136851	25.61	-1
0	137408	25.71	-1
0	137965	25.81	-1
0	138522	25.91	-1
0	139087	26.01	-1
0	139644	26.11	-1
0	140201	26.21	-1
0	140758	26.31	-1
0	141315	26.41	-1
0	141872	26.51	-1
0	142429	26.61	-1
0	142986	26.71	-1
0	143543	26.81	-1
0	144100	26.91	-1
0	144665	27.01	-1
0	145222	27.11	-1
0	145779	27.21	-1
0	146336	27.31	-1
0	146893	27.41	-1
0	147450	27.51	-1
0	148007	27.61	-1
0	148564	27.71	-1
0	149121	27.81	-1
0	149678	27.91	-1
0	150243	28.01	-1
0	150800	28.11	-1
0	151357	28.21	-1
0	151914	28.31	-1
0	152471	28.41	-1
0	153028	28.51	-1
0	153585	28.61	-1
0	154142	28.71	-1
0	154699	28.81	-1
0	155256	28.91	-1
0	155821	29.01	-1
0	156378	29.11	-1
0	156935	29.21	-1
0	157492	29.31	-1
0	158049	29.41	-1
0	158606	29.51	-1
0	159163	29.61	-1
0	159720	29.71	-1
0	160277	29.81	-1
0	160834	29.91	-1
0	161399	30.01	-1
0	161956	30.11	-1
0	162513	30.21	-1
0	163070	30.31	-1
0	163627	30.41	-1
0	164184	30.51	-1
0	164741	30.61	-1
0	165298	30.71	-1
0	165855	30.81	-1
0	166412	30.91	-1
0	166977	31.01	-1
0	167534	31.11	-1
0	168091	31.21	-1
0	168648	31.31	-1
0	169205	31.41	-1
0	169762	31.51	-1
0	170319	31.61	-1
0	170876	31.71	-1
0	171433	31.81	-1
0	171990	31.91	-1
0	172555	32.01	-1
0	173112	32.11	-1
0	173669	32.21	-1
0	174226	32.31	-1
0	174783	32.41	-1
0	175340	32.51	-1
0	175897	32.61	-1
0	176454	32.71	-1
0	177011	32.81	-1
0	177568	32.91	-1
0	178133	33.01	-1
0	178690	33.11	-1
0	179247	33.21	-1
0	179804	33.31	-1
0	180361	33.41	-1
0	180918	33.51	-1
0	181475	33.61	-1
0	182032	33.71	-1
0	182589	33.81	-1
0	183146	33.91	-1
0	183711	34.01	-1
0	184268	34.11	-1
0	184825	34.21	-1
0	185382	34.31	-1
0	185939	34.41	-1
0	186496	34.51	-1
0	187053	34.61	-1
0	187610	34.71	-1
0	188167	34.81	-1
0	188724	34.91	-1
0	189289	35.01	-1
0	189846	35.11	-1
0	190403	35.21	-1
0	190960	35.31	-1
0	191517	35.41	-1
0	192074	35.51	-1
0	192631	35.61	-1
2	232	1.11	0
2	788	1.21	0
2	1344	1.31	0
2	1900	1.41	0
2	2456	1.51	0
2	3012	1.61	0
2	3568	1.71	0
2	4124	1.81	0
2	4680	1.91	0
2	5244	2.01	0
2	5800	2.11	0
2	6356	2.21	0
2	6912	2.31	0
2	7468	2.41	0
2	8024	2.51	0
2	8580	2.61	0
2	9136	2.71	0
2	9692	2.81	0
2	10248	2.91	0
2	10812	3.01	0
2	11368	3.11	0
2	11924	3.21	0
2	12480	3.31	0
2	13036	3.41	0
2	13592	3.51	0
2	14148	3.61	0
2	14704	3.71	0
2	15260	3.81	0
2	15816	3.91	0
2	16380	4.01	0
2	16936	4.11	0
2	17492	4.21	0
2	18048	4.31	0
2	18604	4.41	0
2	19160	4.51	0
2	19716	4.61	0
2	20272	4.71	0
2	20828	4.81	0
2	21384	4.91	0
2	21949	5.01	0
2	22506	5.11	0
2	23063	5.21	0
2	23620	5.31	0
2	24177	5.41	0
2	24734	5.51	0
2	25291	5.61	0
2	25848	5.71	0
2	26405	5.81	0
2	26962	5.91	0
2	27527	6.01	0
2	28084	6.11	0
2	28641	6.21	0
2	29198	6.31	0
2	29755	6.41	0
2	30312	6.51	0
2	30869	6.61	0
2	31426	6.71	0
2	31983	6.81	0
2	32540	6.91	0
2	33105	7.01	0
2	33662	7.11	0
2	34219	7.21	0
2	34776	7.31	0
2	35333	7.41	0
2	35890	7.51	0
2	36447	7.61	0
2	37004	7.71	0
2	37561	7.81	0
2	38118	7.91	0
2	38683	8.01	0
2	39240	8.11	0
2	39797	8.21	0
2	40354	8.31	0
2	40911	8.41	0
2	41468	8.51	0
2	42025	8.61	0
2	42582	8.71	0
2	43139	8.81	0
2	43696	8.91	0
2	44261	9.01	0
2	44818	9.11	0
2	45375	9.21	0
2	45932	9.31	0
2	46489	9.41	0
2	47046	9.51	0
2	47603	9.61	0
2	48160	9.71	0
2	48717	9.81	0
2	49274	9.91	0
2	49839	10.01	0
2	50396	10.11	0
2	50953	10.21	0
2	51510	10.31	0
2	52067	10.41	0
2	52624	10.51	0
2	53181	10.61	0
2	53738	10.71	0
2	54295	10.81	0
2	54852	10.91	0
2	55417	11.01	0
2	55974	11.11	0
2	56531	11.21	0
2	57088	11.31	0
2	57645	11.41	0
2	58202	11.51	0
2	58759	11.61	0
2	59316	11.71	0
2	59873	11.81	0
2	60430	11.91	0
2	60995	12.01	0
2	61552	12.11	0
2	62109	12.21	0
2	62666	12.31	0
2	63223	12.41	0
2	63780	12.51	0
2	64337	12.61	0
2	64894	12.71	0
2	65451	12.81	0
2	66008	12.91	0
2	66573	13.01	0
2	67130	13.11	0
2	67687	13.21	0
2	68244	13.31	0
2	68801	13.41	0
2	69358	13.51	0
2	69915	13.61	0
2	70472	13.71	0
2	71029	13.81	0
2	71586	13.91	0
2	72151	14.01	0
2	72708	14.11	0
2	73265	14.21	0
2	73822	14.31	0
2	74379	14.41	0
2	74936	14.51	0
2	75493	14.61	0
2	76050	14.71	0
2	76607	14.81	0
2	77164	14.91	0
2	77729	15.01	0
2	78286	15.11	0
2	78843	15.21	0
2	79400	15.31	0
2	79957	15.41	0
2	80514	15.51	0
2	81071	15.61	0
2	81628	15.71	0
2	82185	15.81	0
2	82742	15.91	0
2	83307	16.01	0
2	83864	16.11	0
2	84421	16.21	0
2	84978	16.31	0
2	85535	16.41	0
2	86092	16.51	0
2	86649	16.61	0
2	87206	16.71	0
2	87763	16.81	0
2	88320	16.91	0
2	88885	17.01	0
2	89442	17.11	0
2	89999	17.21	0
2	90556	17.31	0
2	91113	17.41	0
2	91670	17.51	0
2	92227	17.61	0
2	92784	17.71	0
2	93341	17.81	0
2	93898	17.91	0
2	94463	18.01	0
2	95020	18.11	0
2	95577	18.21	0
2	96134	18.31	0
2	96691	18.41	0
2	97248	18.51	0
2	97805	18.61	0
2	98362	18.71	0
2	98919	18.81	0
2	99476	18.91	0
2	100041	19.01	0
2	100598	19.11	0
2	101155	19.21	0
2	101712	19.31	0
2	102269	19.41	0
2	102826	19.51	0
2	103383	19.61	0
2	103940	19.71	0
2	104497	19.81	0
2	105054	19.91	0
2	105619	20.01	0
2	106176	20.11	0
2	106733	20.21	0
2	107290	20.31	0
2	107847	20.41	0
2	108404	20.51	0
2	108961	20.61	0
2	109518	20.71	0
2	110075	20.81	0
2	110632	20.91	0
2	111197	21.01	0
2	111754	21.11	0
2	112311	21.21	0
2	112868	21.31	0
2	113425	21.41	0
2	113982	21.51	0
2	114539	21.61	0
2	115096	21.71	0
2	115653	21.81	0
2	116210	21.91	0
2	116775	22.01	0
2	117332	22.11	0
2	117889	22.21	0
2	118446	22.31	0
2	119003	22.41	0
2	119560	22.51	0
2	120117	22.61	0
2	120674	22.71	0
2	121231	22.81	0
2	121788	22.91	0
2	122353	23.01	0
2	122910	23.11	0
2	123467	23.21	0
2	124024	23.31	0
2	124581	23.41	0
2	125138	23.51	0
2	125695	23.61	0
2	126252	23.71	0
2	126809	23.81	0
2	127366	23.91	0
2	127931	24.01	0
2	128488	24.11	0
2	129045	24.21	0
2	129602	24.31	0
2	130159	24.41	0
2	130716	24.51	0
2	131273	24.61	0
2	131830	24.71	0
2	132387	24.81	0
2	132944	24.91	0
2	133509	25.01	0
2	134066	25.11	0
2	134623	25.21	0
2	135180	25.31	0
2	135737	25.41	0
2	136294	25.51	0
2	136851	25.61	0
2	137408	25.71	0
2	137965	25.81	0
2	138522	25.91	0
2	139087	26.01	0
2	139644	26.11	0
2	140201	26.21	0
2	140758	26.31	0
2	141315	26.41	0
2	141872	26.51	0
2	142429	26.61	0
2	142986	26.71	0
2	143543	26.81	0
2	144100	26.91	0
2	144665	27.01	0
2	145222	27.11	0
2	145779	27.21	0
2	146336	27.31	0
2	146893	27.41	0
2	147450	27.51	0
2	148007	27.61	0
2	148564	27.71	0
2	149121	27.81	0
2	149678	27.91	0
2	150243	28.01	0
2	150800	28.11	0
2	151357	28.21	0
2	151914	28.31	0
2	152471	28.41	0
2	153028	28.51	0
2	153585	28.61	0
2	154142	28.71	0
2	154699	28.81	0
2	155256	28.91	0
2	155821	29.01	0
2	156378	29.11	0
2	156935	29.21	0
2	157492	29.31	0
2	158049	29.41	0
2	158606	29.51	0
2	159163	29.61	0
2	159720	29.71	0
2	160277	29.81	0
2	160834	29.91	0
2	161399	30.01	0
2	161956	30.11	0
2	162513	30.21	0
2	163070	30.31	0
2	163627	30.41	0
2	164184	30.51	0
2	164741	30.61	0
2	165298	30.71	0
2	165855	30.81	0
2	166412	30.91	0
2	166977	31.01	0
2	167534	31.11	0
2	168091	31.21	0
2	168648	31.31	0
2	169205	31.41	0
2	169762	31.51	0
2	170319	31.61	0
2	170876	31.71	0
2	171433	31.81	0
2	171990	31.91	0
2	172555	32.01	0
2	173112	32.11	0
2	173669	32.21	0
2	174226	32.31	0
2	174783	32.41	0
2	175340	32.51	0
2	175897	32.61	0
2	176454	32.71	0
2	177011	32.81	0
2	177568	32.91	0
2	178133	33.01	0
2	178690	33.11	0
2	179247	33.21	0
2	179804	33.31	0
2	180361	33.41	0
2	180918	33.51	0
2	181475	33.61	0
2	182032	33.71	0
2	182589	33.81	0
2	183146	33.91	0
2	183711	34.01	0
2	184268	34.11	0
2	184825	34.21	0
2	185382	34.31	0
2	185939	34.41	0
2	186496	34.51	0
2	187053	34.61	0
2	187610	34.71	0
2	188167	34.81	0
2	188724	34.91	0
2	189289	35.01	0
2	189846	35.11	0
2	190403	35.21	0
2	190960	35.31	0
2	191517	35.41	0
2	192074	35.51	0
2	192631	35.61	0
10	5234	2	0
10	10802	3	0
10	16370	4	0
10	21939	5	0
10	27516	6	0
10	33094	7	0
10	38672	8	0
10	44250	9	0
10	49828	10	0
10	55406	11	0
10	60984	12	0
10	66562	13	0
10	72140	14	0
10	77718	15	0
10	83296	16	0
10	88874	17	0
10	94452	18	0
10	100030	19	0
10	105608	20	0
10	111186	21	0
10	116764	22	0
10	122342	23	0
10	127920	24	0
10	133498	25	0
10	139076	26	0
10	144654	27	0
10	150232	28	0
10	155810	29	0
10	161388	30	0
10	166966	31	0
10	172544	32	0
10	178122	33	0
10	183700	34	0
10	189278	35	0
9	5234	2	0.023625
9	10802	3	0.02625
9	16370	4	0.02625
9	21939	5	0.02625
9	27516	6	0.02625
9	33094	7	0.02625
9	38672	8	0.02625
9	44250	9	0.02625
9	49828	10	0.02625
9	55406	11	0.02625
9	60984	12	0.02625
9	66562	13	0.02625
9	72140	14	0.02625
9	77718	15	0.02625
9	83296	16	0.02625
9	88874	17	0.02625
9	94452	18	0.02625
9	100030	19	0.02625
9	105608	20	0.02625
9	111186	21	0.02625
9	116764	22	0.02625
9	122342	23	0.02625
9	127920	24	0.02625
9	133498	25	0.02625
9	139076	26	0.02625
9	144654	27	0.02625
9	150232	28	0.02625
9	155810	29	0.02625
9	161388	30	0.02625
9	166966	31	0.02625
9	172544	32	0.02625
9	178122	33	0.02625
9	183700	34	0.02625
9	189278	35	0.02625
8	5234	2	0
8	10802	3	0
8	16370	4	0
8	21939	5	0
8	27516	6	0
8	33094	7	0
8	38672	8	0
8	44250	9	0
8	49828	10	0
8	55406	11	0
8	60984	12	0
8	66562	13	0
8	72140	14	0
8	77718	15	0
8	83296	16	0
8	88874	17	0
8	94452	18	0
8	100030	19	0
8	105608	20	0
8	111186	21	0
8	116764	22	0
8	122342	23	0
8	127920	24	0
8	133498	25	0
8	139076	26	0
8	144654	27	0
8	150232	28	0
8	155810	29	0
8	161388	30	0
8	166966	31	0
8	172544	32	0
8	178122	33	0
8	183700	34	0
8	189278	35	0
51	234	1.11	0
51	790	1.21	1.2617922575942e-06
51	1346	1.31	1.2345163358418e-06
51	1902	1.41	1.1902083321047e-06
51	2458	1.51	1.1327799505523e-06
51	3014	1.61	1.0656643722484e-06
51	3570	1.71	9.918423064903e-07
51	4126	1.81	9.138713006962e-07
51	4682	1.91	8.3391713303627e-07
51	5246	2.01	7.5378648674018e-07
51	5802	2.11	6.7495979621413e-07
51	6358	2.21	5.9862422233437e-07
51	6914	2.31	5.2570564136545e-07
51	7470	2.41	4.5689942936633e-07
51	8026	2.51	3.9269997003544e-07
51	8582	2.61	3.33428305197e-07
51	9138	2.71	2.7925773920856e-07
51	9694	2.81	2.3023765464814e-07
51	10250	2.91	1.8631521598422e-07
51	10814	3.01	1.4735480249328e-07
51	11370	3.11	1.1315537008727e-07
51	11926	3.21	8.3466182587699e-08
51	12482	3.31	5.8000207872055e-08
51	13038	3.41	3.6445932778406e-08
51	13594	3.51	1.8477363141756e-08
51	14150	3.61	3.7626242033184e-09
51	14706	3.71	-8.0289284198898e-09
51	15262	3.81	-1.7220994124045e-08
51	15818	3.91	-2.4125691879817e-08
51	16382	4.01	-2.9040250950629e-08
51	16938	4.11	-3.2243946037624e-08
51	17494	4.21	-3.3996408888015e-08
51	18050	4.31	-3.4536557365072e-08
51	18606	4.41	-3.408203070876e-08
51	19162	4.51	-3.2829070732987e-08
51	19718	4.61	-3.0952789842331e-08
51	20274	4.71	-2.8607848321371e-08
51	20830	4.81	-2.5929398930202e-08
51	21386	4.91	-2.3034130691713e-08
51	21951	5.01	-2.0021361422096e-08
51	22508	5.11	-1.6974451426677e-08
51	23065	5.21	0.3476866974462
51	23622	5.31	0.68452189027681
51	24179	5.41	1.0000291924018
51	24736	5.51	1.2851841938578
51	25293	5.61	1.5052280500472
51	25850	5.71	1.5068489967869
51	26407	5.81	1.508232320164
51	26964	5.91	1.5094224550321
51	27529	6.01	1.5104545892189
51	28086	6.11	1.5113571899925
51	28643	6.21	1.512153275577
51	29200	6.31	1.5128614492653
51	29757	6.41	1.5134967400061
51	30314	6.51	1.5140712852913
51	30871	6.61	1.4518458878894
51	31428	6.71	1.1867145165475
51	31985	6.81	0.88503638843148
51	32542	6.91	0.55421851998591
51	33107	7.01	0.20192359450751
51	33664	7.11	-0.16405804760969
51	34221	7.21	-0.53593336999187
51	34778	7.31	-0.90602745213507
51	35335	7.41	-1.2668990359006
51	35892	7.51	-1.4980713741349
51	36449	7.61	-1.5005060917498
51	37006	7.71	-1.5025749882017
51	37563	7.81	-1.5043453532051
51	38120	7.91	-1.5058717385716
51	38685	8.01	-1.5071983453714
51	39242	8.11	-1.5083609689126
51	39799	8.21	-1.5093885827327
51	40356	8.31	-1.5103046279785
51	40913	8.41	-1.5111280624295
51	41470	8.51	-1.5118742134948
51	42027	8.61	-1.5125554714032
51	42584	8.71	-1.5131818521627
51	43141	8.81	-1.513761454444
51	43698	8.91	-1.5143008300982
51	44263	9.01	-1.5148052843968
51	44820	9.11	-1.5152791191128
51	45377	9.21	-1.5157258291421
51	45934	9.31	-1.5161482613859
51	46491	9.41	-1.5165487429969
51	47048	9.51	-1.5169291844425
51	47605	9.61	-1.1371070466981
51	48162	9.71	-0.70132353602036
51	48719	9.81	-0.25666218488965
51	49276	9.91	0.1861849154335
51	49841	10.01	0.61731960317473
51	50398	10.11	1.02770852776
51	50955	10.21	1.4092435057092
51	51512	10.31	1.4965058531596
51	52069	10.41	1.498949562841
51	52626	10.51	1.50102975048
51	53183	10.61	1.5028134120814
51	53740	10.71	1.5043548336171
51	54297	10.81	1.5056979765141
51	54854	10.91	1.5068784208099
[...]
35	108580	20.541826931386	0.100011805784
35	109137	20.641825737214	0.099998805828
35	109694	20.741824543104	0.09999880589
35	110251	20.841823349063	0.099998805959
35	110808	20.9418221551	0.099998806037
35	111373	21.041820961226	0.099998806126
35	111930	21.141819767446	0.09999880622
35	112487	21.241818573766	0.09999880632
35	113044	21.341817380194	0.099998806428
35	113601	21.441816186731	0.099998806537
35	114158	21.541814993386	0.099998806655
35	114715	21.641826800163	0.100011806777
35	115272	21.741825607065	0.099998806902
35	115829	21.841824414096	0.099998807031
35	116386	21.941823221261	0.099998807165
35	116951	22.041822028562	0.099998807301
35	117508	22.141820835996	0.099998807434
35	118065	22.241819643556	0.09999880756
35	118622	22.341818451232	0.099998807676
35	119179	22.441817259007	0.099998807775
35	119736	22.541816066861	0.099998807854
35	120293	22.641814874771	0.09999880791
35	120850	22.741826682711	0.10001180794
35	121407	22.841825490657	0.099998807946
35	121964	22.941824298589	0.099998807932
35	122529	23.041823106488	0.099998807899
35	123086	23.141821914339	0.099998807851
35	123643	23.24182072213	0.099998807791
35	124200	23.341819529851	0.099998807721
35	124757	23.441818337492	0.099998807641
35	125314	23.541817145046	0.099998807554
35	125871	23.641815952502	0.099998807456
35	126428	23.741814759858	0.099998807356
35	126985	23.841826567108	0.10001180725
35	127542	23.941825374243	0.099998807135
35	128107	24.041824181263	0.09999880702
35	128664	24.141822988161	0.099998806898
35	129221	24.241821794934	0.099998806773
35	129778	24.341820601579	0.099998806645
35	130335	24.441819408089	0.09999880651
35	130892	24.541818214464	0.099998806375
35	131449	24.641817020707	0.099998806243
35	132006	24.741815826821	0.099998806114
35	132563	24.841814632821	0.099998806
35	133120	24.941826438723	0.100011805902
35	133685	25.041825244547	0.099998805824
35	134242	25.141824050318	0.099998805771
35	134799	25.241822856057	0.099998805739
35	135356	25.341821661792	0.099998805735
35	135913	25.441820467541	0.099998805749
35	136470	25.541819273325	0.099998805784
35	137027	25.641818079158	0.099998805833
35	137584	25.741816885051	0.099998805893
35	138141	25.841815691019	0.099998805968
35	138698	25.941827497069	0.10001180605
35	139263	26.041826303207	0.099998806138
35	139820	26.141825109442	0.099998806235
35	140377	26.241823915781	0.099998806339
35	140934	26.341822722229	0.099998806448
35	141491	26.44182152879	0.099998806561
35	142048	26.541820335472	0.099998806682
35	142605	26.641819142276	0.099998806804
35	143162	26.741817949209	0.099998806933
35	143719	26.841816756273	0.099998807064
35	144276	26.941815563472	0.099998807199
35	144841	27.041827370806	0.100011807334
35	145398	27.14182617828	0.099998807474
35	145955	27.24182498588	0.0999988076
35	146512	27.341823793599	0.099998807719
35	147069	27.441822601417	0.099998807818
35	147626	27.541821409318	0.099998807901
35	148183	27.641820217275	0.099998807957
35	148740	27.741819025264	0.099998807989
35	149297	27.841817833261	0.099998807997
35	149854	27.941816641247	0.099998807986
35	150419	28.041815449202	0.099998807955
35	150976	28.14182725711	0.100011807908
35	151533	28.24182606496	0.09999880785
35	152090	28.34182487274	0.09999880778
35	152647	28.441823680442	0.099998807702
35	153204	28.541822488058	0.099998807616
35	153761	28.641821295578	0.09999880752
35	154318	28.741820102999	0.099998807421
35	154875	28.841818910313	0.099998807314
35	155432	28.941817717517	0.099998807204
35	155997	29.041816524606	0.099998807089
35	156554	29.141815331573	0.099998806967
35	157111	29.241827138416	0.100011806843
35	157668	29.341825945132	0.099998806716
35	158225	29.441824751716	0.099998806584
35	158782	29.541823558166	0.09999880645
35	159339	29.641822364482	0.099998806316
35	159896	29.741821170675	0.099998806193
35	160453	29.841819976753	0.099998806078
35	161010	29.941818782734	0.099998805981
35	161575	30.041817588637	0.099998805903
35	162132	30.141816394487	0.09999880585
35	162689	30.241815200308	0.099998805821
35	163246	30.341827006124	0.100011805816
35	163803	30.441825811955	0.099998805831
35	164360	30.541824617821	0.099998805866
35	164917	30.641823423736	0.099998805915
35	165474	30.741822229713	0.099998805977
35	166031	30.841821035764	0.099998806051
35	166588	30.941819841896	0.099998806132
35	167153	31.04181864812	0.099998806224
35	167710	31.141817454442	0.099998806322
35	168267	31.241816260868	0.099998806426
35	168824	31.341815067404	0.099998806536
35	169381	31.441826874056	0.100011806652
35	169938	31.541825680826	0.09999880677
35	170495	31.641824487726	0.0999988069
35	171052	31.741823294754	0.099998807028
35	171609	31.841822101919	0.099998807165
35	172166	31.941820909224	0.099998807305
35	172731	32.04181971667	0.099998807446
35	173288	32.141818524255	0.099998807585
35	173845	32.241817331964	0.099998807709
35	174402	32.341816139771	0.099998807807
35	174959	32.441814947634	0.099998807863
35	175516	32.541826755492	0.100011807858
35	176073	32.641825563264	0.099998807772
35	176630	32.741824370851	0.099998807587
35	177187	32.841823178138	0.099998807287
35	177744	32.941821984997	0.099998806859
35	178309	33.041820791287	0.09999880629
35	178866	33.141819596863	0.099998805576
35	179423	33.241818401568	0.099998804705
35	179980	33.341817205241	0.099998803673
35	180537	33.441816007717	0.099998802476
35	181094	33.541814808827	0.09999880111
35	181651	33.6418266084	0.100011799573
35	182208	33.74182540626	0.09999879786
35	182765	33.841824202235	0.099998795975
35	183322	33.941822996147	0.099998793912
35	183887	34.041821787816	0.099998791669
35	184444	34.14182057707	0.099998789254
35	185001	34.241819363726	0.099998786656
35	185558	34.341818147609	0.099998783883
35	186115	34.441816928539	0.09999878093
35	186672	34.541815706341	0.099998777802
35	187229	34.641827480848	0.100011774507
35	187786	34.741826251899	0.099998771051
35	188343	34.841825019349	0.09999876745
35	188900	34.941823783071	0.099998763722
35	189465	35.041822542958	0.099998759887
35	190022	35.141821298917	0.099998755959
35	190579	35.241820050879	0.099998751962
35	191136	35.341818798794	0.099998747915
35	191693	35.441817542625	0.099998743831
35	192250	35.541816282345	0.09999873972
35	192807	35.64181501794	0.099998735595
36	964	1.24182310076	0.099998807224
36	1520	1.341821907984	0.099998807224
36	2076	1.441820715208	0.099998807224
36	2632	1.541819522432	0.099998807224
36	3188	1.641818329656	0.099998807224
36	3744	1.74181713688	0.099998807224
36	4300	1.841815944104	0.099998807224
36	4856	1.941814751328	0.099998807224
36	5420	2.041826558552	0.100011807224
36	5976	2.141825365776	0.099998807224
36	6532	2.241824173	0.099998807224
36	7088	2.341822980224	0.099998807224
36	7644	2.441821787448	0.099998807224
36	8200	2.541820594672	0.099998807224
36	8756	2.641819401896	0.099998807224
36	9312	2.74181820912	0.099998807224
36	9868	2.841817016344	0.099998807224
36	10424	2.941815823568	0.099998807224
36	10988	3.041814630792	0.099998807224
36	11544	3.141826438016	0.100011807224
36	12100	3.24182524524	0.099998807224
36	12656	3.341824052464	0.099998807224
36	13212	3.441822859688	0.099998807224
36	13768	3.541821666912	0.099998807224
36	14324	3.641820474136	0.099998807224
36	14880	3.74181928136	0.099998807224
36	15436	3.841818088584	0.099998807224
36	15992	3.941816895808	0.099998807224
36	16556	4.041815703032	0.099998807224
36	17112	4.141827510256	0.100011807224
36	17668	4.24182631748	0.099998807224
36	18224	4.341825124704	0.099998807224
36	18780	4.441823931928	0.099998807224
36	19336	4.541822739152	0.099998807224
36	19892	4.641821546376	0.099998807224
36	20448	4.7418203536	0.099998807224
36	21004	4.841819160824	0.099998807224
36	21560	4.941817968048	0.099998807224
36	22125	5.041816775272	0.099998807224
36	22682	5.141815582496	0.099998807224
36	23239	5.241827389722	0.100011807226
36	23796	5.341826196957	0.099998807235
36	24353	5.441825004208	0.099998807251
36	24910	5.541823811488	0.09999880728
36	25467	5.641822618813	0.099998807325
36	26024	5.741821426197	0.099998807384
36	26581	5.841820233655	0.099998807458
36	27138	5.941819041201	0.099998807546
36	27703	6.041817848844	0.099998807643
36	28260	6.141816656594	0.09999880775
36	28817	6.241815464458	0.099998807864
36	29374	6.341827272443	0.100011807985
36	29931	6.441826080555	0.099998808112
36	30488	6.541824888801	0.099998808246
36	31045	6.641823697183	0.099998808382
36	31602	6.741822505705	0.099998808522
36	32159	6.841821314362	0.099998808657
36	32716	6.941820123157	0.099998808795
36	33281	7.041818932072	0.099998808915
36	33838	7.141817741097	0.099998809025
36	34395	7.241816550216	0.099998809119
36	34952	7.34181535941	0.099998809194
36	35509	7.441827168655	0.100011809245
36	36066	7.541825977929	0.099998809274
36	36623	7.641824787209	0.09999880928
36	37180	7.741823596476	0.099998809267
36	37737	7.841822405711	0.099998809235
36	38294	7.941821214899	0.099998809188
36	38859	8.041820024027	0.099998809128
36	39416	8.141818833086	0.099998809059
36	39973	8.241817642066	0.09999880898
36	40530	8.341816450957	0.099998808891
36	41087	8.441815259755	0.099998808798
36	41644	8.541827068452	0.100011808697
36	42201	8.641825877041	0.099998808589
36	42758	8.741824685521	0.09999880848
36	43315	8.841823493883	0.099998808362
36	43872	8.941822302125	0.099998808242
36	44437	9.041821110241	0.099998808116
36	44994	9.141819918228	0.099998807987
36	45551	9.241818726081	0.099998807853
36	46108	9.341817533796	0.099998807715
36	46665	9.441816341371	0.099998807575
36	47222	9.5418151488	0.099998807429
36	47779	9.641826956085	0.100011807285
36	48336	9.741825763228	0.099998807143
36	48893	9.841824570234	0.099998807006
36	49450	9.941823377119	0.099998806885
36	50015	10.041822183901	0.099998806782
36	50572	10.141820990602	0.099998806701
36	51129	10.241819797246	0.099998806644
36	51686	10.34181860386	0.099998806614
36	52243	10.441817410462	0.099998806602
36	52800	10.541816217077	0.099998806615
36	53357	10.641815023721	0.099998806644
36	53914	10.741826830407	0.100011806686
36	54471	10.841825637151	0.099998806744
36	55028	10.94182444396	0.099998806809
36	55593	11.041823250843	0.099998806883
36	56150	11.141822057809	0.099998806966
36	56707	11.241820864865	0.099998807056
36	57264	11.341819672016	0.099998807151
36	57821	11.441818479269	0.099998807253
36	58378	11.541817286627	0.099998807358
36	58935	11.641816094096	0.099998807469
36	59492	11.741814901681	0.099998807585
36	60049	11.841826709383	0.100011807702
36	60606	11.941825517209	0.099998807826
36	61171	12.04182432516	0.099998807951
36	61728	12.141823133232	0.099998808072
36	62285	12.241821941417	0.099998808185
36	62842	12.341820749704	0.099998808287
36	63399	12.441819558074	0.09999880837
36	63956	12.541818366506	0.099998808432
36	64513	12.641817174978	0.099998808472
36	65070	12.741815983464	0.099998808486
36	65627	12.841814791942	0.099998808478
36	66184	12.941826600389	0.100011808447
36	66749	13.041825408791	0.099998808402
36	67306	13.141824217131	0.09999880834
36	67863	13.241823025399	0.099998808268
36	68420	13.341821833583	0.099998808184
36	68977	13.441820641675	0.099998808092
36	69534	13.541819449666	0.099998807991
36	70091	13.641818257554	0.099998807888
36	70648	13.741817065329	0.099998807775
36	71205	13.841815872985	0.099998807656
36	71762	13.941814680519	0.099998807534
36	72327	14.041826487925	0.100011807406
36	72884	14.141825295198	0.099998807273
36	73441	14.241824102337	0.099998807139
36	73998	14.341822909335	0.099998806998
36	74555	14.441821716192	0.099998806857
36	75112	14.541820522903	0.099998806711
36	75669	14.64181932947	0.099998806567
36	76226	14.741818135902	0.099998806432
36	76783	14.841816942208	0.099998806306
36	77340	14.941815748405	0.099998806197
36	77905	15.041827554513	0.100011806108
36	78462	15.141826360554	0.099998806041
36	79019	15.241825166556	0.099998806002
36	79576	15.34182397254	0.099998805984
36	80133	15.44182277853	0.09999880599
36	80690	15.541821584541	0.099998806011
36	81247	15.641820390593	0.099998806052
36	81804	15.741819196699	0.099998806106
36	82361	15.841818002867	0.099998806168
36	82918	15.941816809107	0.09999880624
36	83483	16.041815615429	0.099998806322
36	84040	16.141827421841	0.100011806412
36	84597	16.241826228346	0.099998806505
36	85154	16.341825034955	0.099998806609
36	85711	16.441823841667	0.099998806712
36	86268	16.541822648492	0.099998806825
36	86825	16.641821455434	0.099998806942
36	87382	16.741820262495	0.099998807061
36	87939	16.841819069681	0.099998807186
36	88496	16.941817876994	0.099998807313
36	89061	17.041816684438	0.099998807444
36	89618	17.141815492009	0.099998807571
36	90175	17.241827299703	0.100011807694
36	90732	17.341826107508	0.099998807805
36	91289	17.441824915406	0.099998807898
36	91846	17.541823723377	0.099998807971
36	92403	17.641822531399	0.099998808022
36	92960	17.741821339446	0.099998808047
36	93517	17.841820147493	0.099998808047
36	94074	17.941818955522	0.099998808029
36	94639	18.041817763515	0.099998807993
36	95196	18.141816571455	0.09999880794
36	95753	18.24181537933	0.099998807875
36	96310	18.34182718713	0.1000118078
36	96867	18.441825994845	0.099998807715
36	97424	18.541824802469	0.099998807624
36	97981	18.641823609994	0.099998807525
36	98538	18.741822417413	0.099998807419
36	99095	18.841821224718	0.099998807305
36	99652	18.941820031908	0.09999880719
36	100217	19.041818838978	0.09999880707
36	100774	19.141817645923	0.099998806945
36	101331	19.24181645274	0.099998806817
36	101888	19.341815259422	0.099998806682
36	102445	19.441827065969	0.100011806547
36	103002	19.541825872378	0.099998806409
36	103559	19.641824678649	0.099998806271
36	104116	19.741823484791	0.099998806142
36	104673	19.841822290814	0.099998806023
36	105230	19.941821096737	0.099998805923
36	105795	20.041819902577	0.09999880584
36	106352	20.141818708359	0.099998805782
36	106909	20.241817514109	0.09999880575
36	107466	20.34181631985	0.099998805741
36	108023	20.441815125602	0.099998805752
36	108580	20.541826931386	0.100011805784
36	109137	20.641825737214	0.099998805828
36	109694	20.741824543104	0.09999880589
36	110251	20.841823349063	0.099998805959
36	110808	20.9418221551	0.099998806037
36	111373	21.041820961226	0.099998806126
36	111930	21.141819767446	0.09999880622
36	112487	21.241818573766	0.09999880632
36	113044	21.341817380194	0.099998806428
36	113601	21.441816186731	0.099998806537
36	114158	21.541814993386	0.099998806655
36	114715	21.641826800163	0.100011806777
36	115272	21.741825607065	0.099998806902
36	115829	21.841824414096	0.099998807031
36	116386	21.941823221261	0.099998807165
36	116951	22.041822028562	0.099998807301
36	117508	22.141820835996	0.099998807434
36	118065	22.241819643556	0.09999880756
36	118622	22.341818451232	0.099998807676
36	119179	22.441817259007	0.099998807775
36	119736	22.541816066861	0.099998807854
36	120293	22.641814874771	0.09999880791
36	120850	22.741826682711	0.10001180794
36	121407	22.841825490657	0.099998807946
36	121964	22.941824298589	0.099998807932
36	122529	23.041823106488	0.099998807899
36	123086	23.141821914339	0.099998807851
36	123643	23.24182072213	0.099998807791
36	124200	23.341819529851	0.099998807721
36	124757	23.441818337492	0.099998807641
36	125314	23.541817145046	0.099998807554
36	125871	23.641815952502	0.099998807456
36	126428	23.741814759858	0.099998807356
36	126985	23.841826567108	0.10001180725
36	127542	23.941825374243	0.099998807135
36	128107	24.041824181263	0.09999880702
36	128664	24.141822988161	0.099998806898
36	129221	24.241821794934	0.099998806773
36	129778	24.341820601579	0.099998806645
36	130335	24.441819408089	0.09999880651
36	130892	24.541818214464	0.099998806375
36	131449	24.641817020707	0.099998806243
36	132006	24.741815826821	0.099998806114
36	132563	24.841814632821	0.099998806
36	133120	24.941826438723	0.100011805902
36	133685	25.041825244547	0.099998805824
36	134242	25.141824050318	0.099998805771
36	134799	25.241822856057	0.099998805739
36	135356	25.341821661792	0.099998805735
36	135913	25.441820467541	0.099998805749
36	136470	25.541819273325	0.099998805784
36	137027	25.641818079158	0.099998805833
36	137584	25.741816885051	0.099998805893
36	138141	25.841815691019	0.099998805968
36	138698	25.941827497069	0.10001180605
36	139263	26.041826303207	0.099998806138
36	139820	26.141825109442	0.099998806235
36	140377	26.241823915781	0.099998806339
36	140934	26.341822722229	0.099998806448
36	141491	26.44182152879	0.099998806561
36	142048	26.541820335472	0.099998806682
36	142605	26.641819142276	0.099998806804
36	143162	26.741817949209	0.099998806933
36	143719	26.841816756273	0.099998807064
36	144276	26.941815563472	0.099998807199
36	144841	27.041827370806	0.100011807334
36	145398	27.14182617828	0.099998807474
36	145955	27.24182498588	0.0999988076
36	146512	27.341823793599	0.099998807719
36	147069	27.441822601417	0.099998807818
36	147626	27.541821409318	0.099998807901
36	148183	27.641820217275	0.099998807957
36	148740	27.741819025264	0.099998807989
36	149297	27.841817833261	0.099998807997
36	149854	27.941816641247	0.099998807986
36	150419	28.041815449202	0.099998807955
36	150976	28.14182725711	0.100011807908
36	151533	28.24182606496	0.09999880785
36	152090	28.34182487274	0.09999880778
36	152647	28.441823680442	0.099998807702
36	153204	28.541822488058	0.099998807616
36	153761	28.641821295578	0.09999880752
36	154318	28.741820102999	0.099998807421
36	154875	28.841818910313	0.099998807314
36	155432	28.941817717517	0.099998807204
36	155997	29.041816524606	0.099998807089
36	156554	29.141815331573	0.099998806967
36	157111	29.241827138416	0.100011806843
36	157668	29.341825945132	0.099998806716
36	158225	29.441824751716	0.099998806584
36	158782	29.541823558166	0.09999880645
36	159339	29.641822364482	0.099998806316
36	159896	29.741821170675	0.099998806193
36	160453	29.841819976753	0.099998806078
36	161010	29.941818782734	0.099998805981
36	161575	30.041817588637	0.099998805903
36	162132	30.141816394487	0.09999880585
36	162689	30.241815200308	0.099998805821
36	163246	30.341827006124	0.100011805816
36	163803	30.441825811955	0.099998805831
36	164360	30.541824617821	0.099998805866
36	164917	30.641823423736	0.099998805915
36	165474	30.741822229713	0.099998805977
36	166031	30.841821035764	0.099998806051
36	166588	30.941819841896	0.099998806132
36	167153	31.04181864812	0.099998806224
36	167710	31.141817454442	0.099998806322
36	168267	31.241816260868	0.099998806426
36	168824	31.341815067404	0.099998806536
36	169381	31.441826874056	0.100011806652
36	169938	31.541825680826	0.09999880677
36	170495	31.641824487726	0.0999988069
36	171052	31.741823294754	0.099998807028
36	171609	31.841822101919	0.099998807165
36	172166	31.941820909224	0.099998807305
36	172731	32.04181971667	0.099998807446
36	173288	32.141818524255	0.099998807585
36	173845	32.241817331964	0.099998807709
36	174402	32.341816139771	0.099998807807
36	174959	32.441814947634	0.099998807863
36	175516	32.541826755492	0.100011807858
36	176073	32.641825563264	0.099998807772
36	176630	32.741824370851	0.099998807587
36	177187	32.841823178138	0.099998807287
36	177744	32.941821984997	0.099998806859
36	178309	33.041820791287	0.09999880629
36	178866	33.141819596863	0.099998805576
36	179423	33.241818401568	0.099998804705
36	179980	33.341817205241	0.099998803673
36	180537	33.441816007717	0.099998802476
36	181094	33.541814808827	0.09999880111
36	181651	33.6418266084	0.100011799573
36	182208	33.74182540626	0.09999879786
36	182765	33.841824202235	0.099998795975
36	183322	33.941822996147	0.099998793912
36	183887	34.041821787816	0.099998791669
36	184444	34.14182057707	0.099998789254
36	185001	34.241819363726	0.099998786656
36	185558	34.341818147609	0.099998783883
36	186115	34.441816928539	0.09999878093
36	186672	34.541815706341	0.099998777802
36	187229	34.641827480848	0.100011774507
36	187786	34.741826251899	0.099998771051
36	188343	34.841825019349	0.09999876745
36	188900	34.941823783071	0.099998763722
36	189465	35.041822542958	0.099998759887
36	190022	35.141821298917	0.099998755959
36	190579	35.241820050879	0.099998751962
36	191136	35.341818798794	0.099998747915
36	191693	35.441817542625	0.099998743831
36	192250	35.541816282345	0.09999873972
36	192807	35.64181501794	0.099998735595
