version 2
run SinusoidalJammingDetail-213-20170801-16:42:07-6818
attr CACCSpacing 9
attr attackAcc -30
attr attackPos 7
attr attackSpeed 150
attr attackStart 30
attr attacker 1
attr beaconInterval 0.1
attr configname SinusoidalJammingDetail
attr controller 1
attr datetime 20170801-16:42:07
attr experiment SinusoidalJammingDetail
attr fakeAcc "(1 == 4)"
attr fakePos "(1 == 2)"
attr fakeSpeed "(1 == 3)"
attr inifile omnetpp_213.ini
attr iterationvars "$leaderSpeed=80, $controller=1, $CACCSpacing=9, $sController=\"CACC\", $attacker=1, $attackStart=30, $attackSpeed=150, $attackPos=7, $attackAcc=-30, $0=9, $1=0, $nCars=8, $platoonSize=8, $nLanes=1, $beaconInterval=0.1, $priority=2, $packetSize=200, $ploegH=0.5, $leaderHeadway=1.2, $fakeSpeed=(1 == 3), $fakeAcc=(1 == 4), $fakePos=(1 == 2)"
attr iterationvarsf leaderSpeed=80,controller=1,CACCSpacing=9,sController=CACC,attacker=1,attackStart=30,attackSpeed=150,attackPos=7,attackAcc=-30,9,0,nCars=8,platoonSize=8,nLanes=1,beaconInterval=0.1,priority=2,packetSize=200,ploegH=0.5,leaderHeadway=1.2,fakeSpeed=(1_==_3),fakeAcc=(1_==_4),fakePos=(1_==_2)-
attr leaderHeadway 1.2
attr leaderSpeed 80
attr measurement "$leaderSpeed=80, $controller=1, $CACCSpacing=9, $sController=\"CACC\", $attacker=1, $attackStart=30, $attackSpeed=150, $attackPos=7, $attackAcc=-30, $0=9, $1=0, $nCars=8, $platoonSize=8, $nLanes=1, $beaconInterval=0.1, $priority=2, $packetSize=200, $ploegH=0.5, $leaderHeadway=1.2, $fakeSpeed=(1 == 3), $fakeAcc=(1 == 4), $fakePos=(1 == 2)"
attr nCars 8
attr nLanes 1
attr network scenario
attr packetSize 200
attr platoonSize 8
attr ploegH 0.5
attr priority 2
attr processid 6818
attr repetition 3
attr replication #3
attr resultdir results
attr runnumber 213
attr sController "\"CACC\""
attr seedset 3
param **.coreDebug false
param **.debug false
param **.headway 0.1s
param **.numberOfCars 8
param **.numberOfCarsPerPlatoon 8
param **.numberOfLanes 1
param **.numericController 1
param **.traffic.nCars 8
param **.traffic.nLanes 1
param **.traffic.platoonInsertDistance 9m
param **.traffic.platoonInsertHeadway 0s
param **.traffic.platoonInsertSpeed 80kmph
param **.traffic.platoonInsertTime "1 s"
param **.traffic.platoonLeaderHeadway 1.2s
param **.traffic.platoonSize 8
param **.traffic.platooningVType "\"vtypeauto\""
param **.traffic_type "\"PlatoonsTrafficManager\""
param *.**.nic.mac1609_4.bitrate 6Mbps
param *.**.nic.mac1609_4.txPower 100mW
param *.**.nic.mac1609_4.useServiceChannel false
param *.**.nic.phy80211p.analogueModels "xmldoc(\"config.xml\")"
param *.**.nic.phy80211p.decider "xmldoc(\"config.xml\")"
param *.**.nic.phy80211p.maxTXPower 100mW
param *.**.nic.phy80211p.sensitivity -94dBm
param *.**.nic.phy80211p.thermalNoise -95dBm
param *.**.nic.phy80211p.usePropagationDelay true
param *.**.nic.phy80211p.useThermalNoise true
param *.annotations.draw false
param *.connectionManager.alpha 2.0
param *.connectionManager.carrierFrequency "5.890e9 Hz"
param *.connectionManager.pMax 100mW
param *.connectionManager.sat -94dBm
param *.connectionManager.sendDirect true
param *.manager.autoShutdown true
param *.manager.commandLine "\"sumo --remote-port $port --seed $seed --configuration-file $configFile\""
param *.manager.configFile "\"./sumocfg/freeway.sumo.cfg\""
param *.manager.host "\"localhost\""
param *.manager.margin 25
param *.manager.moduleDisplayString "\"\""
param *.manager.moduleName "\"node\""
param *.manager.moduleType "\"Car\""
param *.manager.updateInterval 0.01s
param *.node[*].appl.attackStart 30s
param *.node[*].appl.attackerType 1
param *.node[*].appl.simulationDuration "60 s"
param *.node[*].appl_type "\"SimplePlatooningApp\""
param *.node[*].helper.nCars 8
param *.node[*].helper.nLanes 1
param *.node[*].helper.platoonSize 8
param *.node[*].helper_type "\"PositionHelper\""
param *.node[*].mobility.x 0
param *.node[*].mobility.y 0
param *.node[*].mobility.z 1.895
param *.node[*].prot.attackStart 30s
param *.node[*].prot.attackerType 1
param *.node[*].prot.attackingNode 3
param *.node[*].prot.beaconingInterval 0.1s
param *.node[*].prot.fakeAcc "(1 == 4)"
param *.node[*].prot.fakePos "(1 == 2)"
param *.node[*].prot.fakeSpeed "(1 == 3)"
param *.node[*].prot.maliciousAcc "-30 mpss"
param *.node[*].prot.maliciousSpeed 150kmph
param *.node[*].prot.packetSize 200
param *.node[*].prot.priority 2
param *.node[*].prot.shiftX "7 m"
param *.node[*].prot.useControllerAcceleration true
param *.node[*].protocol_type "\"SimplePlatooningBeaconing\""
param *.node[*].scenario.accHeadway 0.1s
param *.node[*].scenario.caccC1 0.5
param *.node[*].scenario.caccOmegaN "0.2 Hz"
param *.node[*].scenario.caccSpacing 9m
param *.node[*].scenario.caccXi 1
param *.node[*].scenario.controller "\"CACC\""
param *.node[*].scenario.engineTau "0.5 s"
param *.node[*].scenario.leaderHeadway 1.2s
param *.node[*].scenario.leaderOscillationFrequency "0.2 Hz"
param *.node[*].scenario.leaderSpeed 80kmph
param *.node[*].scenario.oscillationAmplitude "10 kmph"
param *.node[*].scenario.ploegH 0.5s
param *.node[*].scenario.ploegKd 0.7
param *.node[*].scenario.ploegKp 0.2
param *.node[*].scenario.startOscillating "5 s"
param *.node[*].scenario.useRealisticEngine false
param *.node[*].scenario_type "\"SinusoidalScenario\""
param *.node[*].unicast.packetLossRate 0
param *.obstacles.debug false
param *.playgroundSizeX 65000m
param *.playgroundSizeY 25000m
param *.playgroundSizeZ 50m
param *.world.use2D false
param *.world.useTorus false

vector 0  scenario.node[0].appl  distance  ETV
vector 1  scenario.node[0].appl  relativeSpeed  ETV
vector 2  scenario.node[0].appl  nodeId  ETV
vector 6  scenario.node[0].appl  acceleration  ETV
vector 7  scenario.node[0].appl  controllerAcceleration  ETV
vector 3  scenario.node[0].appl  speed  ETV
vector 4  scenario.node[0].appl  posx  ETV
vector 5  scenario.node[0].appl  posy  ETV
vector 22  scenario.node[1].appl  distance  ETV
vector 23  scenario.node[1].appl  relativeSpeed  ETV
vector 24  scenario.node[1].appl  nodeId  ETV
vector 28  scenario.node[1].appl  acceleration  ETV
vector 29  scenario.node[1].appl  controllerAcceleration  ETV
vector 25  scenario.node[1].appl  speed  ETV
vector 26  scenario.node[1].appl  posx  ETV
vector 27  scenario.node[1].appl  posy  ETV
vector 44  scenario.node[2].appl  distance  ETV
vector 45  scenario.node[2].appl  relativeSpeed  ETV
vector 46  scenario.node[2].appl  nodeId  ETV
vector 50  scenario.node[2].appl  acceleration  ETV
vector 51  scenario.node[2].appl  controllerAcceleration  ETV
vector 47  scenario.node[2].appl  speed  ETV
vector 48  scenario.node[2].appl  posx  ETV
vector 49  scenario.node[2].appl  posy  ETV
vector 66  scenario.node[3].appl  distance  ETV
vector 67  scenario.node[3].appl  relativeSpeed  ETV
vector 68  scenario.node[3].appl  nodeId  ETV
vector 72  scenario.node[3].appl  acceleration  ETV
vector 73  scenario.node[3].appl  controllerAcceleration  ETV
vector 69  scenario.node[3].appl  speed  ETV
vector 70  scenario.node[3].appl  posx  ETV
vector 71  scenario.node[3].appl  posy  ETV
vector 88  scenario.node[4].appl  distance  ETV
vector 89  scenario.node[4].appl  relativeSpeed  ETV
vector 90  scenario.node[4].appl  nodeId  ETV
vector 94  scenario.node[4].appl  acceleration  ETV
vector 95  scenario.node[4].appl  controllerAcceleration  ETV
vector 91  scenario.node[4].appl  speed  ETV
vector 92  scenario.node[4].appl  posx  ETV
vector 93  scenario.node[4].appl  posy  ETV
vector 110  scenario.node[5].appl  distance  ETV
vector 111  scenario.node[5].appl  relativeSpeed  ETV
vector 112  scenario.node[5].appl  nodeId  ETV
vector 116  scenario.node[5].appl  acceleration  ETV
vector 117  scenario.node[5].appl  controllerAcceleration  ETV
vector 113  scenario.node[5].appl  speed  ETV
vector 114  scenario.node[5].appl  posx  ETV
vector 115  scenario.node[5].appl  posy  ETV
vector 132  scenario.node[6].appl  distance  ETV
vector 133  scenario.node[6].appl  relativeSpeed  ETV
vector 134  scenario.node[6].appl  nodeId  ETV
vector 138  scenario.node[6].appl  acceleration  ETV
vector 139  scenario.node[6].appl  controllerAcceleration  ETV
vector 135  scenario.node[6].appl  speed  ETV
vector 136  scenario.node[6].appl  posx  ETV
vector 137  scenario.node[6].appl  posy  ETV
vector 154  scenario.node[7].appl  distance  ETV
vector 155  scenario.node[7].appl  relativeSpeed  ETV
vector 156  scenario.node[7].appl  nodeId  ETV
vector 160  scenario.node[7].appl  acceleration  ETV
vector 161  scenario.node[7].appl  controllerAcceleration  ETV
vector 157  scenario.node[7].appl  speed  ETV
vector 158  scenario.node[7].appl  posx  ETV
vector 159  scenario.node[7].appl  posy  ETV
vector 35  scenario.node[1].prot  leaderDelay  ETV
vector 33  scenario.node[1].prot  leaderDelayId  ETV
vector 36  scenario.node[1].prot  frontDelay  ETV
vector 34  scenario.node[1].prot  frontDelayId  ETV
vector 57  scenario.node[2].prot  leaderDelay  ETV
vector 55  scenario.node[2].prot  leaderDelayId  ETV
vector 79  scenario.node[3].prot  leaderDelay  ETV
vector 77  scenario.node[3].prot  leaderDelayId  ETV
vector 101  scenario.node[4].prot  leaderDelay  ETV
vector 99  scenario.node[4].prot  leaderDelayId  ETV
vector 123  scenario.node[5].prot  leaderDelay  ETV
vector 121  scenario.node[5].prot  leaderDelayId  ETV
vector 145  scenario.node[6].prot  leaderDelay  ETV
vector 143  scenario.node[6].prot  leaderDelayId  ETV
vector 167  scenario.node[7].prot  leaderDelay  ETV
vector 165  scenario.node[7].prot  leaderDelayId  ETV
vector 168  scenario.node[7].prot  frontDelay  ETV
vector 166  scenario.node[7].prot  frontDelayId  ETV
vector 58  scenario.node[2].prot  frontDelay  ETV
vector 56  scenario.node[2].prot  frontDelayId  ETV
vector 124  scenario.node[5].prot  frontDelay  ETV
vector 122  scenario.node[5].prot  frontDelayId  ETV
vector 80  scenario.node[3].prot  frontDelay  ETV
vector 78  scenario.node[3].prot  frontDelayId  ETV
vector 146  scenario.node[6].prot  frontDelay  ETV
vector 144  scenario.node[6].prot  frontDelayId  ETV
vector 102  scenario.node[4].prot  frontDelay  ETV
vector 100  scenario.node[4].prot  frontDelayId  ETV
vector 8  scenario.node[0].prot  nodeId  ETV
vector 9  scenario.node[0].prot  busyTime  ETV
vector 10  scenario.node[0].prot  collisions  ETV
vector 30  scenario.node[1].prot  nodeId  ETV
vector 31  scenario.node[1].prot  busyTime  ETV
vector 32  scenario.node[1].prot  collisions  ETV
vector 52  scenario.node[2].prot  nodeId  ETV
vector 53  scenario.node[2].prot  busyTime  ETV
vector 54  scenario.node[2].prot  collisions  ETV
vector 74  scenario.node[3].prot  nodeId  ETV
vector 75  scenario.node[3].prot  busyTime  ETV
vector 76  scenario.node[3].prot  collisions  ETV
vector 96  scenario.node[4].prot  nodeId  ETV
vector 97  scenario.node[4].prot  busyTime  ETV
vector 98  scenario.node[4].prot  collisions  ETV
vector 118  scenario.node[5].prot  nodeId  ETV
vector 119  scenario.node[5].prot  busyTime  ETV
vector 120  scenario.node[5].prot  collisions  ETV
vector 140  scenario.node[6].prot  nodeId  ETV
vector 141  scenario.node[6].prot  busyTime  ETV
vector 142  scenario.node[6].prot  collisions  ETV
vector 162  scenario.node[7].prot  nodeId  ETV
vector 163  scenario.node[7].prot  busyTime  ETV
vector 164  scenario.node[7].prot  collisions  ETV
7	232	1.11	8.430731206488e-07
7	788	1.21	8.247038785214e-07
7	1344	1.31	7.948429328053e-07
7	1900	1.41	7.5609037608615e-07
7	2456	1.51	7.1073863239235e-07
7	3012	1.61	6.6078666094427e-07
7	3568	1.71	6.079568990458e-07
7	4124	1.81	5.5371389606762e-07
7	4680	1.91	4.9928438983216e-07
7	5244	2.01	4.4567811841034e-07
7	5800	2.11	3.9370868165634e-07
7	6356	2.21	3.4401411852514e-07
7	6912	2.31	2.9707706872273e-07
7	7468	2.41	2.5324398578164e-07
7	8024	2.51	2.1274344064182e-07
7	8580	2.61	1.7570315336002e-07
7	9136	2.71	1.4216582755466e-07
7	9692	2.81	1.1210364547765e-07
7	10248	2.91	8.5431519636359e-08
7	10812	3.01	6.2018816748832e-08
7	11368	3.11	4.1699859565369e-08
7	11924	3.21	2.4283316690799e-08
7	12480	3.31	9.5601571103998e-09
7	13036	3.41	-2.6894362292751e-09
7	13592	3.51	-1.2690140493987e-08
7	14148	3.61	-2.0666576006079e-08
7	14704	3.71	-2.6839355626862e-08
7	15260	3.81	-3.1421798496467e-08
7	15816	3.91	-3.4617407607129e-08
7	16380	4.01	-3.6617997523081e-08
7	16936	4.11	-3.7602347902066e-08
7	17492	4.21	-3.7735404134764e-08
7	18048	4.31	-3.7167730226884e-08
7	18604	4.41	-3.6035434192172e-08
7	19160	4.51	-3.446024621212e-08
7	19716	4.61	-3.2549973383311e-08
7	20272	4.71	-3.0399071704323e-08
7	20828	4.81	-2.8089345960325e-08
7	21384	4.91	-2.5690727767369e-08
7	21949	5.01	-2.326218861981e-08
7	22506	5.11	0.34814785015927
7	23063	5.21	0.68726933461214
7	23620	5.31	1.0064705986278
7	24177	5.41	1.2963311417008
7	24734	5.51	1.5
7	25291	5.61	1.5
7	25848	5.71	1.5
7	26405	5.81	1.5
7	26962	5.91	1.5
7	27527	6.01	1.5
7	28084	6.11	1.5
7	28641	6.21	1.5
7	29198	6.31	1.5
7	29755	6.41	1.5
7	30312	6.51	1.49192340766
7	30869	6.61	1.22649932262
7	31426	6.71	0.92305383478006
7	31983	6.81	0.58908101519542
7	32540	6.91	0.23235621239028
7	33105	7.01	-0.13919560128961
7	33662	7.11	-0.5176284684353
7	34219	7.21	-0.89509994168449
7	34776	7.31	-1.2639902903501
7	35333	7.41	-1.5
7	35890	7.51	-1.5
7	36447	7.61	-1.5
7	37004	7.71	-1.5
7	37561	7.81	-1.5
7	38118	7.91	-1.5
7	38683	8.01	-1.5
7	39240	8.11	-1.5
7	39797	8.21	-1.5
7	40354	8.31	-1.5
7	40911	8.41	-1.5
7	41468	8.51	-1.5
7	42025	8.61	-1.5
7	42582	8.71	-1.5
7	43139	8.81	-1.5
7	43696	8.91	-1.5
7	44261	9.01	-1.5
7	44818	9.11	-1.5
7	45375	9.21	-1.5
7	45932	9.31	-1.5
7	46489	9.41	-1.5
7	47046	9.51	-1.1784535907027
7	47603	9.61	-0.73985166445766
7	48160	9.71	-0.29046662083969
7	48717	9.81	0.158682056465
7	49274	9.91	0.59737147669388
7	49839	10.01	1.0162504339893
7	50396	10.11	1.4069035497099
7	50953	10.21	1.5
7	51510	10.31	1.5
7	52067	10.41	1.5
7	52624	10.51	1.5
7	53181	10.61	1.5
7	53738	10.71	1.5
7	54295	10.81	1.5
7	54852	10.91	1.5
7	55417	11.01	1.5
7	55974	11.11	1.5
7	56531	11.21	1.5
7	57088	11.31	1.5
7	57645	11.41	1.5
7	58202	11.51	1.5
7	58759	11.61	1.5
7	59316	11.71	1.5
7	59873	11.81	1.5
7	60430	11.91	1.1420569522637
7	60995	12.01	0.73271074167055
7	61552	12.11	0.3076349169641
7	62109	12.21	-0.12290183406852
7	62666	12.31	-0.54917422870931
7	63223	12.41	-0.96209331721755
7	63780	12.51	-1.3532900275778
7	64337	12.61	-1.5
7	64894	12.71	-1.5
7	65451	12.81	-1.5
7	66008	12.91	-1.5
7	66573	13.01	-1.5
7	67130	13.11	-1.5
7	67687	13.21	-1.5
7	68244	13.31	-1.5
7	68801	13.41	-1.5
7	69358	13.51	-1.5
7	69915	13.61	-1.5
7	70472	13.71	-1.5
7	71029	13.81	-1.5
7	71586	13.91	-1.5
7	72151	14.01	-1.5
7	72708	14.11	-1.5
7	73265	14.21	-1.5
7	73822	14.31	-1.5
7	74379	14.41	-1.3008305793368
7	74936	14.51	-0.88835736023102
7	75493	14.61	-0.45792464376746
7	76050	14.71	-0.020297800498863
7	76607	14.81	0.41435934755698
7	77164	14.91	0.83657487483132
7	77729	15.01	1.2376491838803
7	78286	15.11	1.5
7	78843	15.21	1.5
7	79400	15.31	1.5
7	79957	15.41	1.5
7	80514	15.51	1.5
7	81071	15.61	1.5
7	81628	15.71	1.5
7	82185	15.81	1.5
7	82742	15.91	1.5
7	83307	16.01	1.5
7	83864	16.11	1.5
7	84421	16.21	1.5
7	84978	16.31	1.5
7	85535	16.41	1.5
7	86092	16.51	1.5
7	86649	16.61	1.5
7	87206	16.71	1.5
7	87763	16.81	1.5
7	88320	16.91	1.2451238477314
7	88885	17.01	0.83347870134691
7	89442	17.11	0.40470958876234
7	89999	17.21	-0.03059806222544
7	90556	17.31	-0.46243980387284
7	91113	17.41	-0.88148335305215
7	91670	17.51	-1.2791500631777
7	92227	17.61	-1.5
7	92784	17.71	-1.5
7	93341	17.81	-1.5
7	93898	17.91	-1.5
7	94463	18.01	-1.5
7	95020	18.11	-1.5
7	95577	18.21	-1.5
7	96134	18.31	-1.5
7	96691	18.41	-1.5
7	97248	18.51	-1.5
7	97805	18.61	-1.5
7	98362	18.71	-1.5
7	98919	18.81	-1.5
7	99476	18.91	-1.5
7	100041	19.01	-1.5
7	100598	19.11	-1.5
7	101155	19.21	-1.5
7	101712	19.31	-1.5
7	102269	19.41	-1.2657245815164
7	102826	19.51	-0.85377693481871
7	103383	19.61	-0.4243956003844
7	103940	19.71	0.011767371264867
7	104497	19.81	0.44464851836084
7	105054	19.91	0.86486384400239
7	105619	20.01	1.2637899041101
7	106176	20.11	1.5
7	106733	20.21	1.5
7	107290	20.31	1.5
7	107847	20.41	1.5
7	108404	20.51	1.5
7	108961	20.61	1.5
7	109518	20.71	1.5
7	110075	20.81	1.5
7	110632	20.91	1.5
7	111197	21.01	1.5
7	111754	21.11	1.5
7	112311	21.21	1.5
7	112868	21.31	1.5
7	113425	21.41	1.5
7	113982	21.51	1.5
7	114539	21.61	1.5
7	115096	21.71	1.5
7	115653	21.81	1.5
7	116210	21.91	1.2580915517753
7	116775	22.01	0.84625491634726
7	117332	22.11	0.41709956367407
7	117889	22.21	-0.018747163543662
7	118446	22.31	-0.45124369149508
7	119003	22.41	-0.87102520538678
7	119560	22.51	-1.2694848794604
7	120117	22.61	-1.5
7	120674	22.71	-1.5
7	121231	22.81	-1.5
7	121788	22.91	-1.5
7	122353	23.01	-1.5
7	122910	23.11	-1.5
7	123467	23.21	-1.5
7	124024	23.31	-1.5
7	124581	23.41	-1.5
7	125138	23.51	-1.5
7	125695	23.61	-1.5
7	126252	23.71	-1.5
7	126809	23.81	-1.5
7	127366	23.91	-1.5
7	127931	24.01	-1.5
7	128488	24.11	-1.5
7	129045	24.21	-1.5
7	129602	24.31	-1.5
7	130159	24.41	-1.2609239651119
7	130716	24.51	-0.84904615684549
7	131273	24.61	-0.41980696481121
7	131830	24.71	0.016157099446048
7	132387	24.81	0.44879633966007
7	132944	24.91	0.86873882266865
7	133509	25.01	1.2673715557193
7	134066	25.11	1.5
7	134623	25.21	1.5
7	135180	25.31	1.5
7	135737	25.41	1.5
7	136294	25.51	1.5
7	136851	25.61	1.5
7	137408	25.71	1.5
7	137965	25.81	1.5
7	138522	25.91	1.5
7	139087	26.01	1.5
7	139644	26.11	1.5
7	140201	26.21	1.5
7	140758	26.31	1.5
7	141315	26.41	1.5
7	141872	26.51	1.5
7	142429	26.61	1.5
7	142986	26.71	1.5
7	143543	26.81	1.5
7	144100	26.91	1.2598728518627
7	144665	27.01	0.84801032251372
7	145222	27.11	0.41880224309083
7	145779	27.21	-0.017118277442513
7	146336	27.31	-0.44970455708465
7	146893	27.41	-0.86958730431945
7	147450	27.51	-1.2681558149833
7	148007	27.61	-1.5
7	148564	27.71	-1.5
7	149121	27.81	-1.5
7	149678	27.91	-1.5
7	150243	28.01	-1.5
7	150800	28.11	-1.5
7	151357	28.21	-1.5
7	151914	28.31	-1.5
7	152471	28.41	-1.5
7	153028	28.51	-1.5
7	153585	28.61	-1.5
7	154142	28.71	-1.5
7	154699	28.81	-1.5
7	155256	28.91	-1.5
7	155821	29.01	-1.5
7	156378	29.11	-1.5
7	156935	29.21	-1.5
7	157492	29.31	-1.5
7	158049	29.41	-1.2602629232518
7	158606	29.51	-0.84839472385647
7	159163	29.61	-0.41917509845289
7	159720	29.71	0.016761581286932
7	160277	29.81	0.44936751475819
7	160834	29.91	0.86927243012153
7	161399	30.01	1.2678647739108
7	161956	30.11	1.5
7	162513	30.21	1.5
7	163070	30.31	1.5
7	163627	30.41	1.5
7	164184	30.51	1.5
7	164741	30.61	1.5
7	165298	30.71	1.5
7	165855	30.81	1.5
7	166412	30.91	1.5
7	166977	31.01	1.5
7	167534	31.11	1.5
7	168091	31.21	1.5
7	168648	31.31	1.5
7	169205	31.41	1.5
7	169762	31.51	1.5
7	170319	31.61	1.5
7	170876	31.71	1.5
7	171433	31.81	1.5
7	171990	31.91	1.2601181665206
7	172555	32.01	0.84825207129739
7	173112	32.11	0.41903673064385
7	173669	32.21	-0.016893952363201
7	174226	32.31	-0.44949259223613
7	174783	32.41	-0.8693892809366
7	175340	32.51	-1.2679727801774
7	175897	32.61	-1.5
7	176454	32.71	-1.5
7	177011	32.81	-1.5
7	177568	32.91	-1.5
7	178133	33.01	-1.5
7	178690	33.11	-1.5
7	179247	33.21	-1.5
7	179804	33.31	-1.5
7	180361	33.41	-1.5
7	180918	33.51	-1.5
7	181475	33.61	-1.5
7	182032	33.71	-1.5
7	182589	33.81	-1.5
7	183146	33.91	-1.5
7	183711	34.01	-1.5
7	184268	34.11	-1.5
7	184825	34.21	-1.5
7	185382	34.31	-1.5
7	185939	34.41	-1.2601718862039
7	186496	34.51	-0.84830501011572
7	187053	34.61	-0.41908807937784
7	187610	34.71	0.016844829035751
7	188167	34.81	0.44944617558619
7	188724	34.91	0.86934591722748
7	189289	35.01	1.2679326987084
7	189846	35.11	1.5
7	190403	35.21	1.5
7	190960	35.31	1.5
7	191517	35.41	1.5
7	192074	35.51	1.5
7	192631	35.61	1.5
7	193188	35.71	1.5
7	193745	35.81	1.5
7	194302	35.91	1.5
7	194867	36.01	1.5
7	195424	36.11	1.5
7	195981	36.21	1.5
7	196538	36.31	1.5
7	197095	36.41	1.5
7	197652	36.51	1.5
7	198209	36.61	1.5
7	198766	36.71	1.5
7	199323	36.81	1.5
7	199880	36.91	1.2601519506571
7	200445	37.01	0.84828536435041
7	201002	37.11	0.41906902369789
7	201559	37.21	-0.016863058860206
7	202116	37.31	-0.4494634009539
7	202673	37.41	-0.86936200963903
7	203230	37.51	-1.2679475730701
7	203787	37.61	-1.5
7	204344	37.71	-1.5
7	204901	37.81	-1.5
7	205458	37.91	-1.5
7	206023	38.01	-1.5
7	206580	38.11	-1.5
7	207137	38.21	-1.5
7	207694	38.31	-1.5
7	208251	38.41	-1.5
7	208808	38.51	-1.5
7	209365	38.61	-1.5
7	209922	38.71	-1.5
7	210479	38.81	-1.5
7	211036	38.91	-1.5
7	211601	39.01	-1.5
7	212158	39.11	-1.5
7	212715	39.21	-1.5
7	213272	39.31	-1.5
7	213829	39.41	-1.2601593488036
7	214386	39.51	-0.84829265495815
7	214943	39.61	-0.4190760953231
7	215500	39.71	0.016856293712618
7	216057	39.81	0.4494570085635
7	216614	39.91	0.86935603769236
7	217179	40.01	1.2679420531457
7	217736	40.11	1.5
7	218293	40.21	1.5
7	218850	40.31	1.5
7	219407	40.41	1.5
7	219964	40.51	1.5
7	220521	40.61	1.5
7	221078	40.71	1.5
7	221635	40.81	1.5
7	222192	40.91	1.5
7	222757	41.01	1.5
7	223314	41.11	1.5
7	223871	41.21	1.5
7	224428	41.31	1.5
7	224985	41.41	1.5
7	225542	41.51	1.5
7	226099	41.61	1.5
7	226656	41.71	1.5
7	227213	41.81	1.5
7	227770	41.91	1.2601566033284
7	228335	42.01	0.84828994939089
7	228892	42.11	0.41907347102095
7	229449	42.21	-0.016858804279924
7	230006	42.31	-0.4494593807994
7	230563	42.41	-0.86935825390022
7	231120	42.51	-1.2679441016066
7	231677	42.61	-1.5
7	232234	42.71	-1.5
7	232791	42.81	-1.5
7	233348	42.91	-1.5
7	233913	43.01	-1.5
7	234470	43.11	-1.5
7	235027	43.21	-1.5
7	235584	43.31	-1.5
7	236141	43.41	-1.5
7	236698	43.51	-1.5
7	237255	43.61	-1.5
7	237812	43.71	-1.5
7	238369	43.81	-1.5
7	238926	43.91	-1.5
7	239491	44.01	-1.5
7	240048	44.11	-1.5
7	240605	44.21	-1.5
7	241162	44.31	-1.5
7	241719	44.41	-1.2601576221816
7	242276	44.51	-0.84829095343409
7	242833	44.61	-0.41907444490639
7	243390	44.71	0.016857872601843
7	243947	44.81	0.44945850045652
7	244504	44.91	0.86935743145974
7	245069	45.01	1.2679433414174
7	245626	45.11	1.5
7	246183	45.21	1.5
7	246740	45.31	1.5
7	247297	45.41	1.5
7	247854	45.51	1.5
7	248411	45.61	1.5
7	248968	45.71	1.5
7	249525	45.81	1.5
7	250082	45.91	1.5
7	250647	46.01	1.5
7	251204	46.11	1.5
7	251761	46.21	1.5
7	252318	46.31	1.5
7	252875	46.41	1.5
7	253432	46.51	1.5
7	253989	46.61	1.5
7	254546	46.71	1.5
7	255103	46.81	1.5
7	255660	46.91	1.2601572440827
7	256225	47.01	0.84829058083129
7	256782	47.11	0.41907408349525
7	257339	47.21	-0.016858218349732
7	257896	47.31	-0.44945882715384
7	258453	47.41	-0.86935773666943
7	259010	47.51	-1.2679436235256
7	259567	47.61	-1.5
7	260124	47.71	-1.5
7	260681	47.81	-1.5
7	261238	47.91	-1.5
7	261803	48.01	-1.5
7	262360	48.11	-1.5
7	262917	48.21	-1.5
7	263474	48.31	-1.5
7	264031	48.41	-1.5
7	264588	48.51	-1.5
7	265145	48.61	-1.5
7	265702	48.71	-1.5
7	266259	48.81	-1.5
7	266816	48.91	-1.5
7	267381	49.01	-1.5
7	267938	49.11	-1.5
7	268495	49.21	-1.5
7	269052	49.31	-1.5
7	269609	49.41	-1.2601573843952
7	270166	49.51	-0.84829071910411
7	270723	49.61	-0.41907421761477
7	271280	49.71	0.016858090042899
7	271837	49.81	0.44945870591672
7	272394	49.91	0.86935762340638
7	272959	50.01	1.2679435188356
7	273516	50.11	1.5
7	274073	50.21	1.5
7	274630	50.31	1.5
6	232	1.11	1.2391545567425e-07
6	788	1.21	2.514333630188e-07
6	1344	1.31	3.5153284727585e-07
6	1900	1.41	4.2734420446777e-07
6	2456	1.51	4.8187125401e-07
6	3012	1.61	5.1795971955926e-07
6	3568	1.71	5.3827413637464e-07
6	4124	1.81	5.4528506154838e-07
6	4680	1.91	5.4125663950799e-07
6	5244	2.01	5.2824375984528e-07
6	5800	2.11	5.080941889446e-07
6	6356	2.21	4.8245141215375e-07
6	6912	2.31	4.5276244975412e-07
6	7468	2.41	4.202860282021e-07
6	8024	2.51	3.8610643571246e-07
6	8580	2.61	3.5114133822844e-07
6	9136	2.71	3.1616025353287e-07
6	9692	2.81	2.8179307776099e-07
6	10248	2.91	2.4854536206931e-07
6	10812	3.01	2.1681287876163e-07
6	11368	3.11	1.8689298997288e-07
6	11924	3.21	1.5899530581009e-07
6	12480	3.31	1.3325838210676e-07
6	13036	3.41	1.0975469422192e-07
6	13592	3.51	8.8505203166278e-08
6	14148	3.61	6.948575048682e-08
6	14704	3.71	5.263665059374e-08
6	15260	3.81	3.7870506730542e-08
6	15816	3.91	2.5077895315917e-08
6	16380	4.01	1.4133405557004e-08
6	16936	4.11	4.9016790626411e-09
6	17492	4.21	-2.7593927143243e-09
6	18048	4.31	-8.9940499492513e-09
6	18604	4.41	-1.3947598631603e-08
6	19160	4.51	-1.7761081494427e-08
6	19716	4.61	-2.0570567471623e-08
6	20272	4.71	-2.2507151697937e-08
6	20828	4.81	-2.3691626438449e-08
6	21384	4.91	-2.4239099616352e-08
6	21949	5.01	-2.4253310471067e-08
6	22506	5.11	0.0068264050138822
6	23063	5.21	0.074594790622484
6	23620	5.31	0.19005130280156
6	24177	5.41	0.34050268492081
6	24734	5.51	0.51301635125718
6	25291	5.61	0.69025455388463
6	25848	5.71	0.83572669994751
6	26405	5.81	0.95506452764909
6	26962	5.91	1.0529631117155
6	27527	6.01	1.1332740487145
6	28084	6.11	1.1991569893425
6	28641	6.21	1.2532039476781
6	29198	6.31	1.2975412780619
6	29755	6.41	1.3339133316631
6	30312	6.51	1.3635927194422
6	30869	6.61	1.3702053558546
6	31426	6.71	1.3272611868377
6	31983	6.81	1.2373810863703
6	32540	6.91	1.10404336986
6	33105	7.01	0.93147091462953
6	33662	7.11	0.72451590042988
6	34219	7.21	0.48854317855174
6	34776	7.31	0.22931329168649
6	35333	7.41	-0.044839402561792
6	35890	7.51	-0.30626147784645
6	36447	7.61	-0.52071863285548
6	37004	7.71	-0.69664819536399
6	37561	7.81	-0.84097171286572
6	38118	7.91	-0.95936726507979
6	38683	8.01	-1.0564928550515
6	39240	8.11	-1.1361696676595
6	39797	8.21	-1.2015324054218
6	40354	8.31	-1.2551526162195
6	40911	8.41	-1.299139864987
6	41468	8.51	-1.3352247297291
6	42025	8.61	-1.3648268871716
6	42582	8.71	-1.3891109667025
6	43139	8.81	-1.40903237006
6	43696	8.91	-1.4253748594349
6	44261	9.01	-1.4387813928092
6	44818	9.11	-1.4497794196703
6	45375	9.21	-1.4588016323081
6	45932	9.31	-1.466202989106
6	46489	9.41	-1.4722746795719
6	47046	9.51	-1.4696249147679
6	47603	9.61	-1.3967850640324
6	48160	9.71	-1.2587757642699
6	48717	9.81	-1.066095221946
6	49274	9.91	-0.8292333503487
6	49839	10.01	-0.55852907850635
6	50396	10.11	-0.26404116086489
6	50953	10.21	0.039432698568831
6	51510	10.31	0.30182609741765
6	52067	10.41	0.51708007606237
6	52624	10.51	0.69366331148437
6	53181	10.61	0.83852306844925
6	53738	10.71	0.9573585237959
6	54295	10.81	1.0548449875539
6	54852	10.91	1.1348178423589
6	55417	11.01	1.2004234378345
6	55974	11.11	1.2542428765453
6	56531	11.21	1.2983935615914
6	57088	11.31	1.3346125010074
6	57645	11.41	1.3643246463804
6	58202	11.51	1.3886989543238
6	58759	11.61	1.4086943764056
6	59316	11.71	1.425097586916
6	59873	11.81	1.4385539327701
6	60430	11.91	1.4345627372659
6	60995	12.01	1.3623449188493
6	61552	12.11	1.2299875654136
6	62109	12.21	1.046144839739
6	62666	12.31	0.81967864244703
6	63223	12.41	0.55952045900121
6	63780	12.51	0.27454262944673
6	64337	12.61	-0.022341644921298
6	64894	12.71	-0.28780548061533
6	65451	12.81	-0.50557828690501
6	66008	12.91	-0.68422783830435
6	66573	13.01	-0.83078269406727
6	67130	13.11	-0.95100872083052
6	67687	13.21	-1.0496359374866
6	68244	13.31	-1.1305446069922
6	68801	13.41	-1.1969178964666
6	69358	13.51	-1.2513671116437
6	69915	13.61	-1.2960344327443
6	70472	13.71	-1.3326771936686
6	71029	13.81	-1.3627370202961
6	71586	13.91	-1.387396547964
6	72151	14.01	-1.4076259495617
6	72708	14.11	-1.4242211047701
6	73265	14.21	-1.4378349121323
6	73822	14.31	-1.4490029758559
6	74379	14.41	-1.4542593951862
6	74936	14.51	-1.406745439008
6	75493	14.61	-1.2938574955371
6	76050	14.71	-1.1248409052335
6	76607	14.81	-0.90912582143545
6	77164	14.91	-0.65618298377075
6	77729	15.01	-0.37539052554685
6	78286	15.11	-0.078063005097917
6	78843	15.21	0.20543869667193
6	79400	15.31	0.43800883573084
6	79957	15.41	0.6287973539095
6	80514	15.51	0.78531039043277
6	81071	15.61	0.91370559385275
6	81628	15.71	1.0190343806912
6	82185	15.81	1.1054406719015
6	82742	15.91	1.1763239259945
6	83307	16.01	1.2344728829795
6	83864	16.11	1.2821752809813
6	84421	16.21	1.3213078620826
6	84978	16.31	1.3534102084588
6	85535	16.41	1.37974531373
6	86092	16.51	1.401349272566
6	86649	16.61	1.4190720434684
6	87206	16.71	1.4336108884475
6	87763	16.81	1.445537805208
6	88320	16.91	1.4502949065324
6	88885	17.01	1.3935559567514
6	89442	17.11	1.2733368701429
6	89999	17.21	1.0986742440515
6	90556	17.31	0.87879676591136
6	91113	17.41	0.62298329275663
6	91670	17.51	0.34043137853068
6	92227	17.61	0.043031849076769
6	92784	17.71	-0.23417644595618
6	93341	17.81	-0.46158379949794
6	93898	17.91	-0.64813703535584
6	94463	18.01	-0.80117566522766
6	95020	18.11	-0.92672064505805
6	95577	18.21	-1.0297112558195
6	96134	18.31	-1.114199428261
6	96691	18.41	-1.1835091568834
6	97248	18.51	-1.2403672749233
6	97805	18.61	-1.2870107353912
6	98362	18.71	-1.3252746188865
6	98919	18.81	-1.3566643306593
6	99476	18.91	-1.382414827345
6	100041	19.01	-1.4035392035215
6	100598	19.11	-1.4208685496044
6	101155	19.21	-1.4350846492011
6	101712	19.31	-1.4467468023362
6	102269	19.41	-1.4517201941779
6	102826	19.51	-1.3984004323895
6	103383	19.61	-1.2808993810108
6	103940	19.71	-1.1083308503789
6	104497	19.81	-0.88999806037009
6	105054	19.91	-0.63525086467102
6	105619	20.01	-0.35335363991607
6	106176	20.11	-0.055983891309808
6	106733	20.21	0.22355126013096
6	107290	20.31	0.45286744637067
6	107847	20.41	0.64098658988634
6	108404	20.51	0.79530980944291
6	108961	20.61	0.9219086002382
6	109518	20.71	1.0257637030328
6	110075	20.81	1.1109610600439
6	110632	20.91	1.1808525670215
6	111197	21.01	1.2381879459461
6	111754	21.11	1.2852229265697
6	112311	21.21	1.3238079929597
6	112868	21.31	1.3554611865729
6	113425	21.41	1.3814278301389
6	113982	21.51	1.4027295220426
6	114539	21.61	1.4202043287792
6	115096	21.71	1.4345397567762
6	115653	21.81	1.4462998007623
6	116210	21.91	1.4512038299458
6	116775	22.01	1.3966149622043
6	117332	22.11	1.2781048258539
6	117889	22.21	1.1047586168253
6	118446	22.31	0.88585193073918
6	119003	22.41	0.63070830476057
6	119560	22.51	0.34856734380959
6	120117	22.61	0.051185654370656
6	120674	22.71	-0.22748748564574
6	121231	22.81	-0.45609652228009
6	121788	22.91	-0.64363555681872
6	122353	23.01	-0.79748288496297
6	122910	23.11	-0.92369127904632
6	123467	23.21	-1.0272261205632
6	124024	23.31	-1.1121607517786
6	124581	23.41	-1.1818367320966
6	125138	23.51	-1.2389953040923
6	125695	23.61	-1.2858852414528
6	126252	23.71	-1.3243513218477
6	126809	23.81	-1.3559069055024
6	127366	23.91	-1.3817934749049
6	127931	24.01	-1.4030294781044
6	128488	24.11	-1.4204503972252
6	129045	24.21	-1.434741618608
6	129602	24.31	-1.4464653977726
6	130159	24.41	-1.4513952146881
6	130716	24.51	-1.3972773206763
6	131273	24.61	-1.2791416668563
6	131830	24.71	-1.1060840673021
6	132387	24.81	-0.88739036841652
6	132944	24.91	-0.63239387292597
6	133509	25.01	-0.35034337810913
6	134066	25.11	-0.052966136909305
6	134623	25.21	0.2260268698226
6	135180	25.31	0.45489830857264
6	135737	25.41	0.64265260424108
6	136294	25.51	0.79667652148672
6	136851	25.61	0.92302978013947
6	137408	25.71	1.026683461059
6	137965	25.81	1.1117155819772
6	138522	25.91	1.1814715378073
6	139087	26.01	1.2386957175785
6	139644	26.11	1.2856394761656
6	140201	26.21	1.3241497087126
6	140758	26.31	1.3557415125099
6	141315	26.41	1.381657795045
6	141872	26.51	1.4029181733619
6	142429	26.61	1.4203590885685
6	142986	26.71	1.4346667137069
6	143543	26.81	1.4464039496644
6	144100	26.91	1.4513241957726
6	144665	27.01	1.3970315218256
6	145222	27.11	1.2787568961965
6	145779	27.21	1.1055921925461
6	146336	27.31	0.88681945319387
6	146893	27.41	0.63176835684509
6	147450	27.51	0.34968428947479
6	148007	27.61	0.05230539719534
6	148564	27.71	-0.22656890652399
6	149121	27.81	-0.45534296745871
6	149678	27.91	-0.64301737940262
6	150243	28.01	-0.79697576417068
6	150800	28.11	-0.92327526336611
6	151357	28.21	-1.0268848428069
6	151914	28.31	-1.1118807851517
6	152471	28.41	-1.1816070619506
6	153028	28.51	-1.2388068945789
6	153585	28.61	-1.2857306800289
6	154142	28.71	-1.3242245276459
6	154699	28.81	-1.3558028900945
6	155256	28.91	-1.3817081460427
6	155821	29.01	-1.4029594787171
6	156378	29.11	-1.4203929733469
6	156935	29.21	-1.4346945110272
6	157492	29.31	-1.4464267531491
6	158049	29.41	-1.4513505510322
6	158606	29.51	-1.3971227384761
6	159163	29.61	-1.2788996857307
6	159720	29.71	-1.1057747287555
6	160277	29.81	-0.88703132157555
6	160834	29.91	-0.63200048778391
6	161399	30.01	-0.34992887929981
6	161956	30.11	-0.052550599748002
6	162513	30.21	0.22636775502605
6	163070	30.31	0.45517795316989
6	163627	30.41	0.64288201021121
6	164184	30.51	0.79686471428424
6	164741	30.61	0.92318416378099
6	165298	30.71	1.0268101094166
6	165855	30.81	1.1118194777413
6	166412	30.91	1.1815567685208
6	166977	31.01	1.2387656364488
6	167534	31.11	1.2856968339918
6	168091	31.21	1.324196762107
6	168648	31.31	1.3557801126822
6	169205	31.41	1.3816894606308
6	169762	31.51	1.4029441501705
6	170319	31.61	1.4203803985996
6	170876	31.71	1.4346841953547
6	171433	31.81	1.4464182907037
6	171990	31.91	1.451340770512
6	172555	32.01	1.397088887688
6	173112	32.11	1.2788466960817
6	173669	32.21	1.105706988989
6	174226	32.31	0.88695269654693
6	174783	32.41	0.6319143432556
6	175340	32.51	0.34983811123936
6	175897	32.61	0.052459604302157
6	176454	32.71	-0.22644240298604
6	177011	32.81	-0.45523919049693
6	177568	32.91	-0.64293224614822
6	178133	33.01	-0.7969059252499
6	178690	33.11	-0.92321797112582
6	179247	33.21	-1.0268378432144
6	179804	33.31	-1.1118422291158
6	180361	33.41	-1.181575432572
6	180918	33.51	-1.2387809474717
6	181475	33.61	-1.2857093943634
6	182032	33.71	-1.3242070659867
6	182589	33.81	-1.3557885654517
6	183146	33.91	-1.3816963948457
6	183711	34.01	-1.4029498386424
6	184268	34.11	-1.4203850651278
6	184825	34.21	-1.434688023533
6	185382	34.31	-1.4464214311442
6	185939	34.41	-1.4513444000944
6	186496	34.51	-1.3971014498232
6	187053	34.61	-1.2788663607083
6	187610	34.71	-1.1057321274315
6	188167	34.81	-0.88698187454526
6	188724	34.91	-0.63194631176486
6	189289	35.01	-0.34987179555586
6	189846	35.11	-0.052493373001994
6	190403	35.21	0.22641470089013
6	190960	35.31	0.45521646512974
6	191517	35.41	0.64291360343276
6	192074	35.51	0.79689063173021
6	192631	35.61	0.9232054251143
6	193188	35.71	1.0268275511155
6	193745	35.81	1.1118337860104
6	194302	35.91	1.1815685062846
6	194867	36.01	1.2387752655037
6	195424	36.11	1.2857047331707
6	195981	36.21	1.324203242185
6	196538	36.31	1.3557854286034
6	197095	36.41	1.3816938215378
6	197652	36.51	1.4029477276342
6	198209	36.61	1.4203833333653
6	198766	36.71	1.4346866028841
6	199323	36.81	1.4464202657173
6	199880	36.91	1.4513430531448
6	200445	37.01	1.3970967879747
6	201002	37.11	1.2788590631025
6	201559	37.21	1.1057227984747
6	202116	37.31	0.8869710464964
6	202673	37.41	0.63193444814829
6	203230	37.51	0.34985929519813
6	203787	37.61	0.052480841329228
6	204344	37.71	-0.22642498122742
6	204901	37.81	-0.45522489858705
6	205458	37.91	-0.64292052180406
6	206023	38.01	-0.79689630720416
6	206580	38.11	-0.92321008097898
6	207137	38.21	-1.0268313705456
6	207694	38.31	-1.1118369192733
6	208251	38.41	-1.1815710766513
6	208808	38.51	-1.2387773740993
6	209365	38.61	-1.2857064629529
6	209922	38.71	-1.3242046612092
6	210479	38.81	-1.3557865926966
6	211036	38.91	-1.3816947764997
6	211601	39.01	-1.4029485110349
6	212158	39.11	-1.420383976027
6	212715	39.21	-1.4346871300905
6	213272	39.31	-1.4464206982101
6	213829	39.41	-1.4513435530016
6	214386	39.51	-1.3970985180013
6	214943	39.61	-1.2788617712673
6	215500	39.71	-1.1057262604808
6	216057	39.81	-0.88697506482056
6	216614	39.91	-0.63193885077553
6	217179	40.01	-0.34986393412169
6	217736	40.11	-0.052485491873711
6	218293	40.21	0.22642116616005
6	218850	40.31	0.45522176890245
6	219407	40.41	0.64291795437263
6	219964	40.51	0.79689420101552
6	220521	40.61	0.92320835317068
6	221078	40.71	1.0268299531418
6	221635	40.81	1.1118357565078
6	222192	40.91	1.1815701227786
6	222757	41.01	1.2387765915918
6	223314	41.11	1.2857058210248
6	223871	41.21	1.3242041346043
6	224428	41.31	1.3557861606976
6	224985	41.41	1.3816944221094
6	225542	41.51	1.4029482203117
6	226099	41.61	1.420383737533
6	226656	41.71	1.4346869344426
6	227213	41.81	1.4464205377106
6	227770	41.91	1.4513433675031
6	228335	42.01	1.3970978759829
6	228892	42.11	1.2788607662586
6	229449	42.21	1.1057249757194
6	230006	42.31	0.88697357360701
6	230563	42.41	0.6319372169461
6	231120	42.51	0.3498622126024
6	231677	42.61	0.052483766041789
6	232234	42.71	-0.22642258194381
6	232791	42.81	-0.45522293033819
6	233348	42.91	-0.64291890715467
6	233913	43.01	-0.79689498262923
6	234470	43.11	-0.92320899436622
6	235027	43.21	-1.0268304791456
6	235584	43.31	-1.111836188014
6	236141	43.41	-1.1815704767642
6	236698	43.51	-1.2387768819831
6	237255	43.61	-1.2857060592466
6	237812	43.71	-1.3242043300295
6	238369	43.81	-1.3557863210146
6	238926	43.91	-1.3816945536259
6	239491	44.01	-1.4029483282012
6	240048	44.11	-1.4203838260396
6	240605	44.21	-1.4346870070494
6	241162	44.31	-1.4464205972729
6	241719	44.41	-1.4513434363423
6	242276	44.51	-1.3970981142382
6	242833	44.61	-1.2788611392207
6	243390	44.71	-1.1057254524978
6	243947	44.81	-0.88697412700043
6	244504	44.91	-0.63193782326394
6	245069	45.01	-0.34986285146203
6	245626	45.11	-0.052484406502273
6	246183	45.21	0.22642205654293
6	246740	45.31	0.45522249932652
6	247297	45.41	0.64291855357439
6	247854	45.51	0.7968946925704
6	248411	45.61	0.92320875641683
6	248968	45.71	1.0268302839439
6	249525	45.81	1.1118360278807
6	250082	45.91	1.1815703453994
6	250647	46.01	1.2387767742183
6	251204	46.11	1.285705970842
6	251761	46.21	1.3242042575069
6	252318	46.31	1.3557862615201
6	252875	46.41	1.3816945048191
6	253432	46.51	1.4029482881629
6	253989	46.61	1.4203837931944
6	254546	46.71	1.4346869801042
6	255103	46.81	1.4464205751686
6	255660	46.91	1.4513434107954
6	256225	47.01	1.3970980258208
6	256782	47.11	1.2788610008133
6	257339	47.21	1.1057252755645
6	257896	47.31	0.88697392163581
6	258453	47.41	0.63193759825886
6	259010	47.51	0.34986261438021
6	259567	47.61	0.052484168826084
6	260124	47.71	-0.22642225152048
6	260681	47.81	-0.45522265927609
6	261238	47.91	-0.64291868478925
6	261803	48.01	-0.79689480021266
6	262360	48.11	-0.92320884472166
6	262917	48.21	-1.0268303563844
6	263474	48.31	-1.1118360873073
6	264031	48.41	-1.1815703941497
6	264588	48.51	-1.2387768142112
6	265145	48.61	-1.2857060036499
6	265702	48.71	-1.3242042844208
6	266259	48.81	-1.3557862835995
6	266816	48.91	-1.3816945229319
6	267381	49.01	-1.402948303021
6	267938	49.11	-1.4203838053835
6	268495	49.21	-1.434686990104
6	269052	49.31	-1.4464205833722
6	269609	49.41	-1.4513434202772
6	270166	49.51	-1.3970980586329
6	270723	49.61	-1.278861052177
6	271280	49.71	-1.105725341225
6	271837	49.81	-0.88697399784721
6	272394	49.91	-0.63193768175829
6	272959	50.01	-0.34986270236175
6	273516	50.11	-0.05248425702824
6	274073	50.21	0.22642217916413
6	274630	50.31	0.45522259991877
5	232	1.11	36.55
5	788	1.21	36.55
5	1344	1.31	36.55
5	1900	1.41	36.55
5	2456	1.51	36.55
5	3012	1.61	36.55
5	3568	1.71	36.55
5	4124	1.81	36.55
5	4680	1.91	36.55
5	5244	2.01	36.55
5	5800	2.11	36.55
5	6356	2.21	36.55
5	6912	2.31	36.55
5	7468	2.41	36.55
5	8024	2.51	36.55
5	8580	2.61	36.55
5	9136	2.71	36.55
5	9692	2.81	36.55
5	10248	2.91	36.55
5	10812	3.01	36.55
5	11368	3.11	36.55
5	11924	3.21	36.55
5	12480	3.31	36.55
5	13036	3.41	36.55
5	13592	3.51	36.55
5	14148	3.61	36.55
5	14704	3.71	36.55
5	15260	3.81	36.55
5	15816	3.91	36.55
5	16380	4.01	36.55
5	16936	4.11	36.55
5	17492	4.21	36.55
5	18048	4.31	36.55
5	18604	4.41	36.55
5	19160	4.51	36.55
5	19716	4.61	36.55
5	20272	4.71	36.55
5	20828	4.81	36.55
5	21384	4.91	36.55
5	21949	5.01	36.55
5	22506	5.11	36.55
5	23063	5.21	36.55
5	23620	5.31	36.55
5	24177	5.41	36.55
5	24734	5.51	36.55
5	25291	5.61	36.55
5	25848	5.71	36.55
5	26405	5.81	36.55
5	26962	5.91	36.55
5	27527	6.01	36.55
5	28084	6.11	36.55
5	28641	6.21	36.55
5	29198	6.31	36.55
5	29755	6.41	36.55
5	30312	6.51	36.55
5	30869	6.61	36.55
5	31426	6.71	36.55
5	31983	6.81	36.55
5	32540	6.91	36.55
5	33105	7.01	36.55
5	33662	7.11	36.55
5	34219	7.21	36.55
5	34776	7.31	36.55
5	35333	7.41	36.55
5	35890	7.51	36.55
5	36447	7.61	36.55
5	37004	7.71	36.55
5	37561	7.81	36.55
5	38118	7.91	36.55
5	38683	8.01	36.55
5	39240	8.11	36.55
5	39797	8.21	36.55
5	40354	8.31	36.55
5	40911	8.41	36.55
5	41468	8.51	36.55
5	42025	8.61	36.55
5	42582	8.71	36.55
5	43139	8.81	36.55
5	43696	8.91	36.55
5	44261	9.01	36.55
5	44818	9.11	36.55
5	45375	9.21	36.55
5	45932	9.31	36.55
5	46489	9.41	36.55
5	47046	9.51	36.55
5	47603	9.61	36.55
5	48160	9.71	36.55
5	48717	9.81	36.55
5	49274	9.91	36.55
5	49839	10.01	36.55
5	50396	10.11	36.55
5	50953	10.21	36.55
5	51510	10.31	36.55
5	52067	10.41	36.55
5	52624	10.51	36.55
5	53181	10.61	36.55
5	53738	10.71	36.55
5	54295	10.81	36.55
5	54852	10.91	36.55
5	55417	11.01	36.55
5	55974	11.11	36.55
5	56531	11.21	36.55
5	57088	11.31	36.55
5	57645	11.41	36.55
5	58202	11.51	36.55
5	58759	11.61	36.55
5	59316	11.71	36.55
5	59873	11.81	36.55
5	60430	11.91	36.55
5	60995	12.01	36.55
5	61552	12.11	36.55
5	62109	12.21	36.55
5	62666	12.31	36.55
5	63223	12.41	36.55
5	63780	12.51	36.55
5	64337	12.61	36.55
5	64894	12.71	36.55
5	65451	12.81	36.55
5	66008	12.91	36.55
5	66573	13.01	36.55
5	67130	13.11	36.55
5	67687	13.21	36.55
5	68244	13.31	36.55
5	68801	13.41	36.55
5	69358	13.51	36.55
5	69915	13.61	36.55
5	70472	13.71	36.55
5	71029	13.81	36.55
5	71586	13.91	36.55
5	72151	14.01	36.55
5	72708	14.11	36.55
5	73265	14.21	36.55
5	73822	14.31	36.55
5	74379	14.41	36.55
5	74936	14.51	36.55
5	75493	14.61	36.55
5	76050	14.71	36.55
5	76607	14.81	36.55
5	77164	14.91	36.55
5	77729	15.01	36.55
5	78286	15.11	36.55
5	78843	15.21	36.55
5	79400	15.31	36.55
5	79957	15.41	36.55
5	80514	15.51	36.55
5	81071	15.61	36.55
5	81628	15.71	36.55
5	82185	15.81	36.55
5	82742	15.91	36.55
5	83307	16.01	36.55
5	83864	16.11	36.55
5	84421	16.21	36.55
5	84978	16.31	36.55
5	85535	16.41	36.55
5	86092	16.51	36.55
5	86649	16.61	36.55
5	87206	16.71	36.55
5	87763	16.81	36.55
5	88320	16.91	36.55
5	88885	17.01	36.55
5	89442	17.11	36.55
5	89999	17.21	36.55
5	90556	17.31	36.55
5	91113	17.41	36.55
5	91670	17.51	36.55
5	92227	17.61	36.55
5	92784	17.71	36.55
5	93341	17.81	36.55
5	93898	17.91	36.55
5	94463	18.01	36.55
5	95020	18.11	36.55
5	95577	18.21	36.55
5	96134	18.31	36.55
5	96691	18.41	36.55
5	97248	18.51	36.55
5	97805	18.61	36.55
5	98362	18.71	36.55
5	98919	18.81	36.55
5	99476	18.91	36.55
5	100041	19.01	36.55
5	100598	19.11	36.55
5	101155	19.21	36.55
5	101712	19.31	36.55
5	102269	19.41	36.55
5	102826	19.51	36.55
5	103383	19.61	36.55
5	103940	19.71	36.55
5	104497	19.81	36.55
5	105054	19.91	36.55
5	105619	20.01	36.55
5	106176	20.11	36.55
5	106733	20.21	36.55
5	107290	20.31	36.55
5	107847	20.41	36.55
5	108404	20.51	36.55
5	108961	20.61	36.55
5	109518	20.71	36.55
5	110075	20.81	36.55
5	110632	20.91	36.55
5	111197	21.01	36.55
5	111754	21.11	36.55
5	112311	21.21	36.55
5	112868	21.31	36.55
5	113425	21.41	36.55
5	113982	21.51	36.55
5	114539	21.61	36.55
5	115096	21.71	36.55
5	115653	21.81	36.55
5	116210	21.91	36.55
5	116775	22.01	36.55
5	117332	22.11	36.55
5	117889	22.21	36.55
5	118446	22.31	36.55
5	119003	22.41	36.55
5	119560	22.51	36.55
5	120117	22.61	36.55
5	120674	22.71	36.55
5	121231	22.81	36.55
5	121788	22.91	36.55
5	122353	23.01	36.55
5	122910	23.11	36.55
5	123467	23.21	36.55
5	124024	23.31	36.55
5	124581	23.41	36.55
5	125138	23.51	36.55
5	125695	23.61	36.55
5	126252	23.71	36.55
5	126809	23.81	36.55
5	127366	23.91	36.55
5	127931	24.01	36.55
5	128488	24.11	36.55
5	129045	24.21	36.55
5	129602	24.31	36.55
5	130159	24.41	36.55
5	130716	24.51	36.55
5	131273	24.61	36.55
5	131830	24.71	36.55
5	132387	24.81	36.55
5	132944	24.91	36.55
5	133509	25.01	36.55
5	134066	25.11	36.55
5	134623	25.21	36.55
5	135180	25.31	36.55
5	135737	25.41	36.55
5	136294	25.51	36.55
5	136851	25.61	36.55
5	137408	25.71	36.55
5	137965	25.81	36.55
5	138522	25.91	36.55
5	139087	26.01	36.55
5	139644	26.11	36.55
5	140201	26.21	36.55
5	140758	26.31	36.55
5	141315	26.41	36.55
5	141872	26.51	36.55
5	142429	26.61	36.55
5	142986	26.71	36.55
5	143543	26.81	36.55
5	144100	26.91	36.55
5	144665	27.01	36.55
5	145222	27.11	36.55
5	145779	27.21	36.55
5	146336	27.31	36.55
5	146893	27.41	36.55
5	147450	27.51	36.55
5	148007	27.61	36.55
5	148564	27.71	36.55
5	149121	27.81	36.55
5	149678	27.91	36.55
5	150243	28.01	36.55
5	150800	28.11	36.55
5	151357	28.21	36.55
5	151914	28.31	36.55
5	152471	28.41	36.55
5	153028	28.51	36.55
5	153585	28.61	36.55
5	154142	28.71	36.55
5	154699	28.81	36.55
5	155256	28.91	36.55
5	155821	29.01	36.55
5	156378	29.11	36.55
5	156935	29.21	36.55
5	157492	29.31	36.55
5	158049	29.41	36.55
5	158606	29.51	36.55
5	159163	29.61	36.55
5	159720	29.71	36.55
5	160277	29.81	36.55
5	160834	29.91	36.55
5	161399	30.01	36.55
5	161956	30.11	36.55
5	162513	30.21	36.55
5	163070	30.31	36.55
5	163627	30.41	36.55
5	164184	30.51	36.55
5	164741	30.61	36.55
5	165298	30.71	36.55
5	165855	30.81	36.55
5	166412	30.91	36.55
5	166977	31.01	36.55
5	167534	31.11	36.55
5	168091	31.21	36.55
5	168648	31.31	36.55
5	169205	31.41	36.55
5	169762	31.51	36.55
5	170319	31.61	36.55
5	170876	31.71	36.55
5	171433	31.81	36.55
5	171990	31.91	36.55
5	172555	32.01	36.55
5	173112	32.11	36.55
5	173669	32.21	36.55
5	174226	32.31	36.55
5	174783	32.41	36.55
5	175340	32.51	36.55
5	175897	32.61	36.55
5	176454	32.71	36.55
5	177011	32.81	36.55
5	177568	32.91	36.55
5	178133	33.01	36.55
5	178690	33.11	36.55
5	179247	33.21	36.55
5	179804	33.31	36.55
5	180361	33.41	36.55
5	180918	33.51	36.55
5	181475	33.61	36.55
5	182032	33.71	36.55
5	182589	33.81	36.55
5	183146	33.91	36.55
5	183711	34.01	36.55
5	184268	34.11	36.55
5	184825	34.21	36.55
5	185382	34.31	36.55
5	185939	34.41	36.55
5	186496	34.51	36.55
5	187053	34.61	36.55
5	187610	34.71	36.55
5	188167	34.81	36.55
5	188724	34.91	36.55
5	189289	35.01	36.55
5	189846	35.11	36.55
5	190403	35.21	36.55
5	190960	35.31	36.55
5	191517	35.41	36.55
5	192074	35.51	36.55
5	192631	35.61	36.55
5	193188	35.71	36.55
5	193745	35.81	36.55
5	194302	35.91	36.55
5	194867	36.01	36.55
5	195424	36.11	36.55
5	195981	36.21	36.55
5	196538	36.31	36.55
5	197095	36.41	36.55
5	197652	36.51	36.55
5	198209	36.61	36.55
5	198766	36.71	36.55
5	199323	36.81	36.55
5	199880	36.91	36.55
5	200445	37.01	36.55
5	201002	37.11	36.55
5	201559	37.21	36.55
5	202116	37.31	36.55
5	202673	37.41	36.55
5	203230	37.51	36.55
5	203787	37.61	36.55
5	204344	37.71	36.55
5	204901	37.81	36.55
5	205458	37.91	36.55
5	206023	38.01	36.55
5	206580	38.11	36.55
5	207137	38.21	36.55
5	207694	38.31	36.55
5	208251	38.41	36.55
5	208808	38.51	36.55
5	209365	38.61	36.55
5	209922	38.71	36.55
5	210479	38.81	36.55
5	211036	38.91	36.55
5	211601	39.01	36.55
5	212158	39.11	36.55
5	212715	39.21	36.55
5	213272	39.31	36.55
5	213829	39.41	36.55
5	214386	39.51	36.55
5	214943	39.61	36.55
5	215500	39.71	36.55
5	216057	39.81	36.55
5	216614	39.91	36.55
5	217179	40.01	36.55
5	217736	40.11	36.55
5	218293	40.21	36.55
5	218850	40.31	36.55
5	219407	40.41	36.55
5	219964	40.51	36.55
5	220521	40.61	36.55
5	221078	40.71	36.55
5	221635	40.81	36.55
5	222192	40.91	36.55
5	222757	41.01	36.55
5	223314	41.11	36.55
5	223871	41.21	36.55
5	224428	41.31	36.55
5	224985	41.41	36.55
5	225542	41.51	36.55
5	226099	41.61	36.55
5	226656	41.71	36.55
5	227213	41.81	36.55
5	227770	41.91	36.55
5	228335	42.01	36.55
5	228892	42.11	36.55
5	229449	42.21	36.55
5	230006	42.31	36.55
5	230563	42.41	36.55
5	231120	42.51	36.55
5	231677	42.61	36.55
5	232234	42.71	36.55
5	232791	42.81	36.55
5	233348	42.91	36.55
5	233913	43.01	36.55
5	234470	43.11	36.55
5	235027	43.21	36.55
5	235584	43.31	36.55
5	236141	43.41	36.55
5	236698	43.51	36.55
5	237255	43.61	36.55
5	237812	43.71	36.55
5	238369	43.81	36.55
5	238926	43.91	36.55
5	239491	44.01	36.55
5	240048	44.11	36.55
5	240605	44.21	36.55
5	241162	44.31	36.55
5	241719	44.41	36.55
5	242276	44.51	36.55
5	242833	44.61	36.55
5	243390	44.71	36.55
5	243947	44.81	36.55
5	244504	44.91	36.55
5	245069	45.01	36.55
5	245626	45.11	36.55
5	246183	45.21	36.55
5	246740	45.31	36.55
5	247297	45.41	36.55
5	247854	45.51	36.55
5	248411	45.61	36.55
5	248968	45.71	36.55
5	249525	45.81	36.55
5	250082	45.91	36.55
5	250647	46.01	36.55
5	251204	46.11	36.55
5	251761	46.21	36.55
5	252318	46.31	36.55
5	252875	46.41	36.55
5	253432	46.51	36.55
5	253989	46.61	36.55
5	254546	46.71	36.55
5	255103	46.81	36.55
5	255660	46.91	36.55
5	256225	47.01	36.55
5	256782	47.11	36.55
5	257339	47.21	36.55
5	257896	47.31	36.55
5	258453	47.41	36.55
5	259010	47.51	36.55
5	259567	47.61	36.55
5	260124	47.71	36.55
5	260681	47.81	36.55
5	261238	47.91	36.55
5	261803	48.01	36.55
5	262360	48.11	36.55
5	262917	48.21	36.55
5	263474	48.31	36.55
5	264031	48.41	36.55
5	264588	48.51	36.55
5	265145	48.61	36.55
5	265702	48.71	36.55
5	266259	48.81	36.55
5	266816	48.91	36.55
5	267381	49.01	36.55
5	267938	49.11	36.55
5	268495	49.21	36.55
5	269052	49.31	36.55
5	269609	49.41	36.55
5	270166	49.51	36.55
5	270723	49.61	36.55
5	271280	49.71	36.55
5	271837	49.81	36.55
5	272394	49.91	36.55
5	272959	50.01	36.55
5	273516	50.11	36.55
5	274073	50.21	36.55
5	274630	50.31	36.55
4	232	1.11	132.56817703274
4	788	1.21	134.79039917195
4	1344	1.31	137.01262131388
4	1900	1.41	139.23484345947
4	2456	1.51	141.45706560945
4	3012	1.61	143.67928776432
4	3568	1.71	145.90150992442
4	4124	1.81	148.12373208991
4	4680	1.91	150.34595426084
4	5244	2.01	152.56817643716
4	5800	2.11	154.79039861873
4	6356	2.21	157.01262080532
4	6912	2.31	159.23484299668
4	7468	2.41	161.4570651925
4	8024	2.51	163.67928739246
4	8580	2.61	165.90150959621
4	9136	2.71	168.1237318034
4	9692	2.81	170.34595401368
4	10248	2.91	172.56817622671
4	10812	3.01	174.79039844217
4	11368	3.11	177.01262065973
4	11924	3.21	179.23484287911
4	12480	3.31	181.45706510002
4	13036	3.41	183.67928732222
4	13592	3.51	185.90150954548
4	14148	3.61	188.12373176958
4	14704	3.71	190.34595399434
4	15260	3.81	192.5681762196
4	15816	3.91	194.79039844521
4	16380	4.01	197.01262067105
4	16936	4.11	199.23484289702
4	17492	4.21	201.45706512301
4	18048	4.31	203.67928734897
4	18604	4.41	205.90150957483
4	19160	4.51	208.12373180054
4	19716	4.61	210.34595402606
4	20272	4.71	212.56817625138
4	20828	4.81	214.79039847647
4	21384	4.91	217.01262070132
4	21949	5.01	219.23484292593
4	22506	5.11	221.45706651558
4	23063	5.21	223.67951660671
4	23620	5.31	225.90296679099
4	24177	5.41	228.12864169608
4	24734	5.51	230.35809130571
4	25291	5.61	232.59305048233
4	25848	5.71	234.8352047105
4	26405	5.81	237.08595603066
4	26962	5.91	239.34645473614
4	27527	6.01	241.61764446808
4	28084	6.11	243.90029934091
4	28641	6.21	246.19505439808
4	29198	6.31	248.5024305964
4	29755	6.41	250.82285530191
4	30312	6.51	253.15667907194
4	30869	6.61	255.5041596564
4	31426	6.71	257.86525062235
4	31983	6.81	260.23942545325
4	32540	6.91	262.62569537277
4	33105	7.01	265.02264566809
4	33662	7.11	267.42847922473
4	34219	7.21	269.84106611674
4	34776	7.31	272.25799808477
4	35333	7.41	274.67664719186
4	35890	7.51	277.09430051078
4	36447	7.61	279.50846023516
4	37004	7.71	281.9170592197
4	37561	7.81	284.31840168528
4	38118	7.91	286.71109650234
4	38683	8.01	289.09400246016
4	39240	8.11	291.46618336843
4	39797	8.21	293.82687122504
4	40354	8.31	296.17543600075
4	40911	8.41	298.51136085216
4	41468	8.51	300.83422178766
4	42025	8.61	303.14367098644
4	42582	8.71	305.43942311432
4	43139	8.81	307.72124409785
4	43696	8.91	309.98894191531
4	44261	9.01	312.242359042
4	44818	9.11	314.48136625277
4	45375	9.21	316.70585753804
4	45932	9.31	318.91574593298
4	46489	9.41	321.11096009617
4	47046	9.51	323.29144376561
4	47603	9.61	325.45739224166
4	48160	9.71	327.60966684565
4	48717	9.81	329.74975933998
4	49274	9.91	331.8796868377
4	49839	10.01	334.0018871783
4	50396	10.11	336.11911607863
4	50953	10.21	338.23434629795
4	51510	10.31	340.35050605017
4	52067	10.41	342.47011664444
4	52624	10.51	344.59525290662
4	53181	10.61	346.72761691658
4	53738	10.71	348.86860497264
4	54295	10.81	351.01936252576
4	54852	10.91	353.18082924469
4	55417	11.01	355.35377598509
4	55974	11.11	357.53883511707
4	56531	11.21	359.73652540441
4	57088	11.31	361.94727241407
4	57645	11.41	364.17142525919
4	58202	11.51	366.40927033414
4	58759	11.61	368.66104258205
4	59316	11.71	370.92693473813
4	59873	11.81	373.20710491237
4	60430	11.91	375.50166801062
4	60995	12.01	377.81041900312
4	61552	12.11	380.1325125739
4	62109	12.21	382.46651962161
4	62666	12.31	384.81051425564
4	63223	12.41	387.16216258724
4	63780	12.51	389.5188119528
4	64337	12.61	391.87758014413
4	64894	12.71	394.23557841209
4	65451	12.81	396.59026098226
4	66008	12.91	398.93952874988
4	66573	13.01	401.28165971793
4	67130	13.11	403.61524124909
4	67687	13.21	405.93911448872
4	68244	13.31	408.2523287724
4	68801	13.41	410.55410422419
4	69358	13.51	412.84380107419
4	69915	13.61	415.12089448823
4	70472	13.71	417.38495391951
4	71029	13.81	419.6356261697
4	71586	13.91	421.87262149313
4	72151	14.01	424.09570219745
4	72708	14.11	426.30467329214
4	73265	14.21	428.49937481705
4	73822	14.31	430.67967554915
4	74379	14.41	432.8454686209
4	74936	14.51	434.99682057016
4	75493	14.61	437.13434670295
4	76050	14.71	439.25929075388
4	76607	14.81	441.3734385403
4	77164	14.91	443.47902354642
4	77729	15.01	445.57863237432
4	78286	15.11	447.67511094239
4	78843	15.21	449.77140212437
4	79400	15.31	451.87021507349
4	79957	15.41	453.97379152549
4	80514	15.51	456.08397048448
4	81071	15.61	458.20226057437
4	81628	15.71	460.32989939219
4	82185	15.81	462.46790219859
4	82742	15.91	464.61710186089
4	83307	16.01	466.7781816204
4	83864	16.11	468.95170197296
4	84421	16.21	471.13812272037
4	84978	16.31	473.33782106028
4	85535	16.41	475.55110642612
4	86092	16.51	477.77823266109
4	86649	16.61	480.019408005
4	87206	16.71	482.27480328707
4	87763	16.81	484.54455864673
4	88320	16.91	486.82878803265
4	88885	17.01	489.12739494085
4	89442	17.11	491.43968100107
4	89999	17.21	493.76433255207
4	90556	17.31	496.099510297
4	91113	17.41	498.44294172384
4	91670	17.51	500.79201375799
4	92227	17.61	503.14386493206
4	92784	17.71	505.49556960096
4	93341	17.81	507.84447550052
4	93898	17.91	510.18839065892
4	94463	18.01	512.52551689579
4	95020	18.11	514.85437907691
4	95577	18.21	517.17376707846
4	96134	18.31	519.48268817739
4	96691	18.41	521.78032799506
4	97248	18.51	524.06601845733
4	97805	18.61	526.3392115107
4	98362	18.71	528.59945756042
4	98919	18.81	530.84638778222
4	99476	18.91	533.07969961172
4	100041	19.01	535.29914484074
4	100598	19.11	537.50451985213
4	101155	19.21	539.69565760891
4	101712	19.31	541.87242108258
4	102269	19.41	544.03469878075
4	102826	19.51	546.18257586934
4	103383	19.61	548.31671988534
4	103940	19.71	550.4384185629
4	104497	19.81	552.54949136176
4	105054	19.91	554.65219630855
4	105619	20.01	556.74913664251
4	106176	20.11	558.84316804191
4	106733	20.21	560.9372224987
4	107290	20.31	563.03397330902
4	107847	20.41	565.13563084387
4	108404	20.51	567.24400837735
4	108961	20.61	569.36059342578
4	109518	20.71	571.48660627066
4	110075	20.81	573.62304796781
4	110632	20.91	575.77073973171
4	111197	21.01	577.93035524424
4	111754	21.11	580.10244715918
4	112311	21.21	582.28746884513
4	112868	21.31	584.48579222226
4	113425	21.41	586.69772239462
4	113982	21.51	588.92350965383
4	114539	21.61	591.16335932617
4	115096	21.71	593.41743985072
4	115653	21.81	595.68588940618
4	116210	21.91	597.96882039857
4	116775	22.01	600.26614353568
4	117332	22.11	602.57717985778
4	117889	22.21	604.90063200465
4	118446	22.31	607.23467314922
4	119003	22.41	609.57703988254
4	119560	22.51	611.92512530805
4	120117	22.61	614.27607159125
4	120674	22.71	616.62694908483
4	121231	22.81	618.97509228373
4	121788	22.91	621.31829763315
4	122353	23.01	623.65475745064
4	122910	23.11	625.98298880697
4	123467	23.21	628.30177518368
4	124024	23.31	630.61011861191
4	124581	23.41	632.90720040961
4	125138	23.51	635.19234897235
4	125695	23.61	637.46501335058
4	126252	23.71	639.72474157376
4	126809	23.81	641.97116286865
4	127366	23.91	644.20397307203
4	127931	24.01	646.42292266412
4	128488	24.11	648.62780695182
4	129045	24.21	650.81845801546
4	129602	24.31	652.99473810244
4	130159	24.41	655.15653514521
4	130716	24.51	657.30393690434
4	131273	24.61	659.43761810045
4	131830	24.71	661.55887252143
4	132387	24.81	663.6695242602
4	132944	24.91	665.77183472818
4	133509	25.01	667.86840946455
4	134066	25.11	669.96210550347
4	134623	25.21	672.05585336215
4	135180	25.31	674.15232143668
4	135737	25.41	676.25371581116
4	136294	25.51	678.36184624292
4	136851	25.61	680.47819736333
4	137408	25.71	682.60398708719
4	137965	25.81	684.74021452886
4	138522	25.91	686.88769931007
4	139087	26.01	689.04711380615
4	139644	26.11	691.21900959904
4	140201	26.21	693.40383917806
4	140758	26.31	695.60197374202
4	141315	26.41	697.81371780328
4	141872	26.51	700.03932116801
4	142429	26.61	702.27898876427
4	142986	26.71	704.53288870447
4	143543	26.81	706.80115889931
4	144100	26.91	709.08391154196
4	144665	27.01	711.38105830343
4	145222	27.11	713.69192288995
4	145779	27.21	716.01521018793
4	146336	27.31	718.3490950898
4	146893	27.41	720.69131544284
4	147450	27.51	723.03926520414
4	148007	27.61	725.39008704253
4	148564	27.71	727.74085076362
4	149121	27.81	730.08888904419
4	149678	27.91	732.43199673877
4	150243	28.01	734.76836486
4	150800	28.11	737.09650940819
4	151357	28.21	739.41521298673
4	151914	28.31	741.72347690635
4	152471	28.41	744.02048189404
4	153028	28.51	746.30555586054
4	153585	28.61	748.57814745861
4	154142	28.71	750.83780439144
4	154699	28.81	753.08415561814
4	155256	28.91	755.31689675593
4	155821	29.01	757.53577810492
4	156378	29.11	759.74059482424
4	156935	29.21	761.93117887301
4	157492	29.31	764.10739239918
4	158049	29.41	766.26912325623
4	158606	29.51	768.41645956219
4	159163	29.61	770.55007702703
4	159720	29.71	772.67127027238
4	160277	29.81	774.78186402925
4	160834	29.91	776.88412017527
4	161399	30.01	778.98064456641
4	161956	30.11	781.07429442363
4	162513	30.21	783.16800006112
4	163070	30.31	785.26442920023
4	163627	30.41	787.36578733478
4	164184	30.51	789.47388373784
4	164741	30.61	791.59020264354
4	165298	30.71	793.71596164079
4	165855	30.81	795.8521595766
4	166412	30.91	797.99961585341
4	166977	31.01	800.15900266662
4	167534	31.11	802.33087145058
4	168091	31.21	804.51567457354
4	168648	31.31	806.713783135
4	169205	31.41	808.92550156582
4	169762	31.51	811.15107960532
4	170319	31.61	813.39072212676
4	170876	31.71	815.64459719753
4	171433	31.81	817.91284269146
4	171990	31.91	820.19557077238
4	172555	32.01	822.49269324399
4	173112	32.11	824.80353417963
4	173669	32.21	827.12679877514
4	174226	32.31	829.46066215975
4	174783	32.41	831.80286235374
4	175340	32.51	834.15079343177
4	175897	32.61	836.501598132
4	176454	32.71	838.85234618467
4	177011	32.81	841.20037001618
4	177568	32.91	843.543464262
4	178133	33.01	845.87981975508
4	178690	33.11	848.20795234829
4	179247	33.21	850.52664452409
4	179804	33.31	852.83489749399
4	180361	33.41	855.1318919036
4	180918	33.51	857.41695559691
4	181475	33.61	859.68953717187
4	182032	33.71	861.94918428678
4	182589	33.81	864.19552586387
4	183146	33.91	866.42825749012
4	183711	34.01	868.64712944085
4	184268	34.11	870.85193685481
4	184825	34.21	873.04251167446
4	185382	34.31	875.21871603405
4	185939	34.41	877.38043777616
4	186496	34.51	879.52776506807
4	187053	34.61	881.661373756
4	187610	34.71	883.78255857639
4	188167	34.81	885.89314434813
4	188724	34.91	887.99539301307
4	189289	35.01	890.09191047079
4	189846	35.11	892.18555396798
4	190403	35.21	894.27925379087
4	190960	35.31	896.37567756789
4	191517	35.41	898.47703071156
4	192074	35.51	900.58512242828
4	192631	35.61	902.70143689744
4	193188	35.71	904.8271916631
4	193745	35.81	906.96338553543
4	194302	35.91	909.11083788669
4	194867	36.01	911.27022088748
4	195424	36.11	913.44208595184
4	195981	36.21	915.62688543134
4	196538	36.31	917.82499041179
4	197095	36.41	920.03670531285
4	197652	36.51	922.26227986463
4	198209	36.61	924.50191893282
4	198766	36.71	926.75579057864
4	199323	36.81	929.02403267081
4	199880	36.91	931.30675736916
4	200445	37.01	933.60387649562
4	201002	37.11	935.91471417412
4	201559	37.21	938.2379756431
4	202116	37.31	940.57183606441
4	202673	37.41	942.91403348215
4	203230	37.51	945.26196198716
4	203787	37.61	947.61276432716
4	204344	37.71	949.96351022201
4	204901	37.81	952.31153206364
4	205458	37.91	954.65462445733
4	206023	38.01	956.99097821128
4	206580	38.11	959.31910915809
4	207137	38.21	961.63779976352
4	207694	38.31	963.94605122546
4	208251	38.41	966.24304417829
4	208808	38.51	968.52810645679
4	209365	38.61	970.8006866514
4	209922	38.71	973.06033241421
4	210479	38.81	975.30667266237
4	211036	38.91	977.53940297872
4	211601	39.01	979.75827363514
4	212158	39.11	981.96307976759
4	212715	39.21	984.15365331623
4	213272	39.31	986.32985641342
4	213829	39.41	988.49157690025
4	214386	39.51	990.63890295076
4	214943	39.61	992.77251042996
4	215500	39.71	994.89369409008
4	216057	39.81	997.00427876213
4	216614	39.91	999.10652639679
4	217179	40.01	1001.2030428997
4	217736	40.11	1003.296685521
4	218293	40.21	1005.3903845431
4	218850	40.31	1007.4868075816
4	219407	40.41	1009.588160038
4	219964	40.51	1011.6962511093
4	220521	40.61	1013.8125649675
4	221078	40.71	1015.9383191504
4	221635	40.81	1018.0745124631
4	222192	40.91	1020.2219642737
4	222757	41.01	1022.3813467495
4	223314	41.11	1024.5532113016
4	223871	41.21	1026.7380102793
4	224428	41.31	1028.9361147666
4	224985	41.41	1031.1478291816
4	225542	41.51	1033.373403253
4	226099	41.61	1035.6130418456
4	226656	41.71	1037.8669130198
4	227213	41.81	1040.1351546435
4	227770	41.91	1042.417878876
4	228335	42.01	1044.7149975417
4	228892	42.11	1047.0258347717
4	229449	42.21	1049.3490958101
4	230006	42.31	1051.6829558233
4	230563	42.41	1054.0251528587
4	231120	42.51	1056.3730810094
4	231677	42.61	1058.7238830243
4	232234	42.71	1061.074628622
4	232791	42.81	1063.4226501896
4	233348	42.91	1065.7657423282
4	233913	43.01	1068.1020958426
4	234470	43.11	1070.4302265627
4	235027	43.21	1072.7489169519
4	235584	43.31	1075.0571682061
4	236141	43.41	1077.3541609583
4	236698	43.51	1079.639223042
4	237255	43.61	1081.9118030465
4	237812	43.71	1084.1714486231
4	238369	43.81	1086.4177886883
4	238926	43.91	1088.6505188242
4	239491	44.01	1090.8693893024
4	240048	44.11	1093.0741952584
4	240605	44.21	1095.2647686319
4	241162	44.31	1097.4409715553
4	241719	44.41	1099.6026918692
4	242276	44.51	1101.7500177488
4	242833	44.61	1103.8836250615
4	243390	44.71	1106.0048085618
4	243947	44.81	1108.1153930825
4	244504	44.91	1110.2176405752
4	245069	45.01	1112.3141569466
4	245626	45.11	1114.4077994473
4	246183	45.21	1116.5014983591
4	246740	45.31	1118.597921296
4	247297	45.41	1120.6992736577
4	247854	45.51	1122.8073646401
4	248411	45.61	1124.9236784141
4	248968	45.71	1127.0494325168
4	249525	45.81	1129.1856257524
4	250082	45.91	1131.3330774886
4	250647	46.01	1133.4924598921
4	251204	46.11	1135.6643243736
4	251761	46.21	1137.8491232822
4	252318	46.31	1140.0472277016
4	252875	46.41	1142.2589420496
4	253432	46.51	1144.4845160549
4	253989	46.61	1146.724154582
4	254546	46.71	1148.9780256912
4	255103	46.81	1151.2462672504
4	255660	46.91	1153.5289914187
4	256225	47.01	1155.8261100211
4	256782	47.11	1158.1369471892
4	257339	47.21	1160.4602081683
4	257896	47.31	1162.7940681253
4	258453	47.41	1165.1362651081
4	259010	47.51	1167.48419321
4	259567	47.61	1169.8349951801
4	260124	47.71	1172.1857407369
4	260681	47.81	1174.5337622668
4	261238	47.91	1176.8768543702
4	261803	48.01	1179.2132078517
4	262360	48.11	1181.5413385405
4	262917	48.21	1183.8600288999
4	263474	48.31	1186.1682801256
4	264031	48.41	1188.4652728502
4	264588	48.51	1190.750334907
4	265145	48.61	1193.0229148853
4	265702	48.71	1195.2825604363
4	266259	48.81	1197.5289004762
4	266816	48.91	1199.7616305873
4	267381	49.01	1201.9805010409
4	267938	49.11	1204.1853069726
4	268495	49.21	1206.3758803221
4	269052	49.31	1208.5520832215
4	269609	49.41	1210.7138035116
4	270166	49.51	1212.8611293676
4	270723	49.61	1214.9947366575
4	271280	49.71	1217.1159201358
4	271837	49.81	1219.2265046355
4	272394	49.91	1221.3287521088
4	272959	50.01	1223.425268462
4	273516	50.11	1225.5189109461
4	274073	50.21	1227.6126098427
4	274630	50.31	1229.7090327656
3	232	1.11	22.222221380388
3	788	1.21	22.222221400033
3	1344	1.31	22.222221430895
3	1900	1.41	22.222221470405
3	2456	1.51	22.222221516302
3	3012	1.61	22.222221566615
3	3568	1.71	22.222221619648
3	4124	1.81	22.222221673961
3	4680	1.91	22.22222172835
3	5244	2.01	22.222221781827
3	5800	2.11	22.222221833594
3	6356	2.21	22.222221883033
3	6912	2.31	22.222221929673
3	7468	2.41	22.222221973181
3	8024	2.51	22.22222201334
3	8580	2.61	22.22222205003
3	9136	2.71	22.222222083218
3	9692	2.81	22.222222112937
3	10248	2.91	22.222222139276
3	10812	3.01	22.222222162372
3	11368	3.11	22.222222182391
3	11924	3.21	22.222222199529
3	12480	3.31	22.222222213995
3	13036	3.41	22.222222226009
3	13592	3.51	22.222222235797
3	14148	3.61	22.222222243584
3	14704	3.71	22.222222249588
3	15260	3.81	22.222222254023
3	15816	3.91	22.22222225709
3	16380	4.01	22.222222258982
3	16936	4.11	22.222222259874
3	17492	4.21	22.22222225993
3	18048	4.31	22.2222222593
3	18604	4.41	22.222222258118
3	19160	4.51	22.222222256505
3	19716	4.61	22.222222254566
3	20272	4.71	22.222222252396
3	20828	4.81	22.222222250075
3	21384	4.91	22.222222247671
3	21949	5.01	22.222222245242
3	22506	5.11	22.222290507125
3	23063	5.21	22.226504077641
3	23620	5.31	22.240220338524
3	24177	5.41	22.267500757653
3	24734	5.51	22.311166408855
3	25291	5.61	22.372508246834
3	25848	5.71	22.449772173803
3	26405	5.81	22.540103259952
3	26962	5.91	22.641153967919
3	27527	6.01	22.750998499419
3	28084	6.11	22.868057029105
3	28641	6.21	22.991033549938
3	29198	6.31	23.118864884746
3	29755	6.41	23.250678857945
3	30312	6.51	23.385758398132
3	30869	6.61	23.522833432233
3	31426	6.71	23.657796347927
3	31983	6.81	23.785829581157
3	32540	6.91	23.902426182221
3	33105	7.01	24.003469344582
3	33662	7.11	24.085300499944
3	34219	7.21	24.144775797594
3	34776	7.31	24.179310887614
3	35333	7.41	24.18693697487
3	35890	7.51	24.167648012512
3	36447	7.61	24.124876590017
3	37004	7.71	24.062841371271
3	37561	7.81	23.985003130021
3	38118	7.91	23.894200906128
3	38683	8.01	23.792763701114
3	39240	8.11	23.682602107418
3	39797	8.21	23.565283476299
3	40354	8.31	23.442093581698
3	40911	8.41	23.314087206082
3	41468	8.51	23.182129638453
3	42025	8.61	23.046930717174
3	42582	8.71	22.90907275694
3	43139	8.81	22.769033458618
3	43696	8.91	22.627204703306
3	44261	9.01	22.483907969993
3	44818	9.11	22.339406983423
3	45375	9.21	22.193918089742
3	45932	9.31	22.047618768141
3	46489	9.41	21.900654613374
3	47046	9.51	21.753242751854
3	47603	9.61	21.609901385757
3	48160	9.71	21.477532883517
3	48717	9.81	21.362073971413
3	49274	9.91	21.268410541013
3	49839	10.01	21.200386497448
3	50396	10.11	21.160826131916
3	50953	10.21	21.151517345739
3	51510	10.31	21.170320646314
3	52067	10.41	21.212693656992
3	52624	10.51	21.274402039281
3	53181	10.61	21.351972160799
3	53738	10.71	21.442554433126
3	54295	10.81	21.543811201247
3	54852	10.91	21.653824773844
3	55417	11.01	21.771021976106
3	55974	11.11	21.894112256751
3	56531	11.21	22.022036914228
3	57088	11.31	22.15392744452
3	57645	11.41	22.289071371833
3	58202	11.51	22.426884217862
3	58759	11.61	22.566886506821
3	59316	11.71	22.708684901566
3	59873	11.81	22.851956728639
3	60430	11.91	22.996030636022
3	60995	12.01	23.135871741664
3	61552	12.11	23.265091831195
3	62109	12.21	23.37815370659
3	62666	12.31	23.470398479481
3	63223	12.41	23.538058615042
3	63780	12.51	23.578257676094
3	64337	12.61	23.589039899577
3	64894	12.71	23.571771817424
3	65451	12.81	23.530658220569
3	66008	12.91	23.469982996268
3	66573	13.01	23.39326042415
3	67130	13.11	23.303373437532
3	67687	13.21	23.20268704586
3	68244	13.31	23.093141380613
3	68801	13.41	22.97632802535
3	69358	13.51	22.853552632938
3	69915	13.61	22.725886293488
3	70472	13.71	22.594207673951
3	71029	13.81	22.459237587264
3	71586	13.91	22.321567351098
3	72151	14.01	22.181682051897
3	72708	14.11	22.039979629502
3	73265	14.21	21.896786533182
3	73822	14.31	21.752370565044
3	74379	14.41	21.606990468916
3	74936	14.51	21.46377531614
3	75493	14.61	21.329003640752
3	76050	14.71	21.208703411767
3	76607	14.81	21.107966374326
3	77164	14.91	21.030937646541
3	77729	15.01	20.980819133086
3	78286	15.11	20.959864153028
3	78843	15.21	20.968113302143
3	79400	15.31	21.001828232614
3	79957	15.41	21.056433973525
3	80514	15.51	21.128177455263
3	81071	15.61	21.213979853553
3	81628	15.71	21.311315460134
3	82185	15.81	21.418112314529
3	82742	15.91	21.532670687482
3	83307	16.01	21.65359620899
3	83864	16.11	21.779745009989
3	84421	16.21	21.910178719438
3	84978	16.31	22.04412754625
3	85535	16.41	22.180959993615
3	86092	16.51	22.320158014196
3	86649	16.61	22.461296628745
3	87206	16.71	22.604027206256
3	87763	16.81	22.748063747876
3	88320	16.91	22.893121062247
3	88885	17.01	23.035415892366
3	89442	17.11	23.168450652444
3	89999	17.21	23.28637522879
3	90556	17.31	23.384255235879
3	91113	17.41	23.458083279214
3	91670	17.51	23.504776599185
3	92227	17.61	23.522191087294
3	92784	17.71	23.510795234811
3	93341	17.81	23.474498911582
3	93898	17.91	23.417775529511
3	94463	18.01	23.344294844447
3	95020	18.11	23.257067334362
3	95577	18.21	23.158562639743
3	96134	18.31	23.050806725964
3	96691	18.41	22.935461590275
3	97248	18.51	22.813890649294
3	97805	18.61	22.687212379529
3	98362	18.71	22.556344321276
3	98919	18.81	22.422039177162
3	99476	18.91	22.284914425505
3	100041	19.01	22.145476613593
3	100598	19.11	22.004141286635
3	101155	19.21	21.861249336433
3	101712	19.31	21.717080413001
3	102269	19.41	21.571909863106
3	102826	19.51	21.429278340793
3	103383	19.61	21.295604178514
3	103940	19.71	21.176803340552
3	104497	19.81	21.077868481133
3	105054	19.91	21.002857998561
3	105619	20.01	20.954898781713
3	106176	20.11	20.936175392548
3	106733	20.21	20.946407816827
3	107290	20.31	20.981749723707
3	107847	20.41	21.03769015195
3	108404	20.51	21.110528542171
3	108961	20.61	21.197229146774
3	109518	20.71	21.295301595376
3	110075	20.81	21.402702916871
3	110632	20.91	21.517757163382
3	111197	21.01	21.639089473919
3	111754	21.11	21.765571983607
3	112311	21.21	21.896279450413
3	112868	21.31	22.030452853606
3	113425	21.41	22.167469531823
3	113982	21.51	22.306818685871
3	114539	21.61	22.448081282503
3	115096	21.71	22.590913568504
3	115653	21.81	22.735033546511
3	116210	21.91	22.880162447437
3	116775	22.01	23.022670267421
3	117332	22.11	23.156108357089
3	117889	22.21	23.274585173836
3	118446	22.31	23.373129675149
3	119003	22.41	23.447702381669
3	119560	22.51	23.495192775121
3	120117	22.61	23.513431301619
3	120674	22.71	23.502767871627
3	121231	22.81	23.467072389944
3	121788	22.91	23.410841907214
3	122353	23.01	23.337765571286
3	122910	23.11	23.250869768327
3	123467	23.21	23.152637189085
3	124024	23.31	23.045104504693
3	124581	23.41	22.929942494852
3	125138	23.51	22.80852178085
3	125695	23.61	22.68196674953
3	126252	23.71	22.551199789728
3	126809	23.81	22.416977581555
3	127366	23.91	22.279920866256
3	127931	24.01	22.140538867856
3	128488	24.11	21.999249327416
3	129045	24.21	21.856394938108
3	129602	24.31	21.71225682769
3	130159	24.41	21.567112496496
3	130716	24.51	21.424558793937
3	131273	24.61	21.291033120082
3	131830	24.71	21.172436080201
3	132387	24.81	21.073746736753
3	132944	24.91	20.999011589812
3	133509	25.01	20.951347232722
3	134066	25.11	20.932928788829
3	134623	25.21	20.943432285463
3	135180	25.31	20.978996566089
3	135737	25.41	21.035119418254
3	136294	25.51	21.108107459632
3	136851	25.61	21.194930830305
3	137408	25.71	21.293103989846
3	137965	25.81	21.400587929387
3	138522	25.91	21.515709951472
3	139087	26.01	21.637097861586
3	139644	26.11	21.763625982293
3	140201	26.21	21.89437086602
3	140758	26.31	22.028574964121
3	141315	26.41	22.165616822853
3	141872	26.51	22.304986633695
3	142429	26.61	22.446266176092
3	142986	26.71	22.589112363523
3	143543	26.81	22.733243745544
3	144100	26.91	22.878382351008
3	144665	27.01	23.02091902685
3	145222	27.11	23.154412198376
3	145779	27.21	23.272964623492
3	146336	27.31	23.371600215963
3	146893	27.41	23.446275081122
3	147450	27.51	23.4938748801
3	148007	27.61	23.512226556393
3	148564	27.71	23.501663708253
3	149121	27.81	23.46605073872
3	149678	27.91	23.409887944692
3	150243	28.01	23.336867137076
3	150800	28.11	23.250016886674
3	151357	28.21	23.151821676394
3	151914	28.31	23.044319647566
3	152471	28.41	22.929182785965
3	153028	28.51	22.80778270228
3	153585	28.61	22.681244595004
3	154142	28.71	22.550491518813
3	154699	28.81	22.416280700038
3	155256	28.91	22.279233328011
3	155821	29.01	22.139858994348
3	156378	29.11	21.998575741663
3	156935	29.21	21.855726510503
3	157492	29.31	21.711592631564
3	158049	29.41	21.566451901273
3	158606	29.51	21.42390890677
3	159163	29.61	21.290403673535
3	159720	29.71	21.171834691746
3	160277	29.81	21.073179152124
3	160834	29.91	20.998481916211
3	161399	30.01	20.950858159518
3	161956	30.11	20.932481705563
3	162513	30.21	20.943022528176
3	163070	30.31	20.978617429104
3	163627	30.41	21.034765400583
3	164184	30.51	21.107774048547
3	164741	30.61	21.194614323799
3	165298	30.71	21.292801350981
3	165855	30.81	21.400296666818
3	166412	30.91	21.515428021429
3	166977	31.01	21.636823587464
3	167534	31.11	21.763357988693
3	168091	31.21	21.894108024635
3	168648	31.31	22.028316349348
3	169205	31.41	22.165361675373
3	169762	31.51	22.304734330603
3	170319	31.61	22.446016206389
3	170876	31.71	22.588864308011
3	171433	31.81	22.732997260337
3	171990	31.91	22.878137202098
3	172555	32.01	23.020677851725
3	173112	32.11	23.154178608822
3	173669	32.21	23.272741446377
3	174226	32.31	23.371389583548
3	174783	32.41	23.446078517603
3	175340	32.51	23.493693383512
3	175897	32.61	23.512060642398
3	176454	32.71	23.501511646042
3	177011	32.81	23.465910039798
3	177568	32.91	23.409756567623
3	178133	33.01	23.336743407174
3	178690	33.11	23.249899430112
3	179247	33.21	23.151709366157
3	179804	33.31	23.044211559107
3	180361	33.41	22.929078160835
3	180918	33.51	22.807680918285
3	181475	33.61	22.681145141731
3	182032	33.71	22.550393977543
3	182589	33.81	22.416184727275
3	183146	33.91	22.279138641972
3	183711	34.01	22.139765363871
3	184268	34.11	21.998482977113
3	184825	34.21	21.855634456316
3	185382	34.31	21.711501160121
3	185939	34.41	21.566360925734
3	186496	34.51	21.423819405916
3	187053	34.61	21.29031698771
3	187610	34.71	21.17175187001
3	188167	34.81	21.073100985766
3	188724	34.91	20.998408970865
3	189289	35.01	20.950790805558
3	189846	35.11	20.932420134352
3	190403	35.21	20.942966097406
3	190960	35.31	20.978565215287
3	191517	35.41	21.034716646136
3	192074	35.51	21.107728131987
3	192631	35.61	21.194570735296
3	193188	35.71	21.292759672295
3	193745	35.81	21.400256554848
3	194302	35.91	21.515389194711
3	194867	36.01	21.636785815101
3	195424	36.11	21.763321081268
3	195981	36.21	21.894071826761
3	196538	36.31	22.028280733552
3	197095	36.41	22.165326537085
3	197652	36.51	22.304699584037
3	198209	36.61	22.445981781171
3	198766	36.71	22.588830146411
3	199323	36.81	22.732963314995
3	199880	36.91	22.878103440787
3	200445	37.01	23.020644637675
3	201002	37.11	23.154146439438
3	201559	37.21	23.272710710969
3	202116	37.31	23.371360575766
3	202673	37.41	23.446051447355
3	203230	37.51	23.493668388244
3	203787	37.61	23.512037793127
3	204344	37.71	23.501490704405
3	204901	37.81	23.465890663085
3	205458	37.91	23.409738474693
3	206023	38.01	23.336726367393
3	206580	38.11	23.249883254281
3	207137	38.21	23.151693899064
3	207694	38.31	23.044196673428
3	208251	38.41	22.929063752117
3	208808	38.51	22.807666900841
3	209365	38.61	22.681131445268
3	209922	38.71	22.550380544397
3	210479	38.81	22.41617151014
3	211036	38.91	22.279125602042
3	211601	39.01	22.13975246931
3	212158	39.11	21.998470201806
3	212715	39.21	21.855621778838
3	213272	39.31	21.711488562897
3	213829	39.41	21.566348396805
3	214386	39.51	21.423807080077
3	214943	39.61	21.29030504955
3	215500	39.71	21.171740464003
3	216057	39.81	21.073090220886
3	216614	39.91	20.99839892501
3	217179	40.01	20.950781529735
3	217736	40.11	20.932411654916
3	218293	40.21	20.942958325899
3	218850	40.31	20.978558024527
3	219407	40.41	21.034709931792
3	219964	40.51	21.107721808471
3	220521	40.61	21.194564732393
3	221078	40.71	21.292753932408
3	221635	40.81	21.400251030725
3	222192	40.91	21.515383847589
3	222757	41.01	21.636780613182
3	223314	41.11	21.763315998466
3	223871	41.21	21.894066841676
3	224428	41.31	22.028275828629
3	224985	41.41	22.165321697923
3	225542	41.51	22.304694798822
3	226099	41.61	22.445977040211
3	226656	41.71	22.588825441757
3	227213	41.81	22.732958640123
3	227770	41.91	22.87809879126
3	228335	42.01	23.020640063515
3	228892	42.11	23.154142009146
3	229449	42.21	23.272706478161
3	230006	42.31	23.371356580882
3	230563	42.41	23.446047719304
3	231120	42.51	23.493664945955
3	231677	42.61	23.51203464638
3	232234	42.71	23.501487820372
3	232791	42.81	23.46588799457
3	233348	42.91	23.409735982978
3	233913	43.01	23.336724020715
3	234470	43.11	23.249881026583
3	235027	43.21	23.151691768973
3	235584	43.31	23.044194623407
3	236141	43.41	22.929061767782
3	236698	43.51	22.807664970392
3	237255	43.61	22.681129559024
3	237812	43.71	22.550378694415
3	238369	43.81	22.416169689908
3	238926	43.91	22.279123806213
3	239491	44.01	22.139750693501
3	240048	44.11	21.99846844242
3	240605	44.21	21.855620032925
3	241162	44.31	21.711486828037
3	241719	44.41	21.56634667135
3	242276	44.51	21.42380538259
3	242833	44.61	21.290303405454
3	243390	44.71	21.171738893193
3	243947	44.81	21.073088738371
3	244504	44.91	20.998397541518
3	245069	45.01	20.95078025229
3	245626	45.11	20.932410487147
3	246183	45.21	20.942957255624
3	246740	45.31	20.978557034233
3	247297	45.41	21.034709007109
3	247854	45.51	21.107720937611
3	248411	45.61	21.194563905687
3	248968	45.71	21.292753141924
3	249525	45.81	21.400250269955
3	250082	45.91	21.515383111196
3	250647	46.01	21.636779896787
3	251204	46.11	21.763315298475
3	251761	46.21	21.894066155142
3	252318	46.31	22.028275153135
3	252875	46.41	22.165321031486
3	253432	46.51	22.304694139814
3	253989	46.61	22.445976387298
3	254546	46.71	22.588824793843
3	255103	46.81	22.732957996311
3	255660	46.91	22.878098150938
3	256225	47.01	23.020639433573
3	256782	47.11	23.154141399018
3	257339	47.21	23.272705895229
3	257896	47.31	23.371356030717
3	258453	47.41	23.446047205886
3	259010	47.51	23.493664471892
3	259567	47.61	23.512034213018
3	260124	47.71	23.501487423191
3	260681	47.81	23.465887627069
3	261238	47.91	23.409735639825
3	261803	48.01	23.336723697536
3	262360	48.11	23.249880719791
3	262917	48.21	23.151691475622
3	263474	48.31	23.044194341083
3	264031	48.41	22.929061494505
3	264588	48.51	22.807664704535
3	265145	48.61	22.681129299255
3	265702	48.71	22.55037843964
3	266259	48.81	22.416169439229
3	266816	48.91	22.279123558896
3	267381	49.01	22.13975044894
3	267938	49.11	21.998468200121
3	268495	49.21	21.855619792482
3	269052	49.31	21.711486589116
3	269609	49.41	21.566346433724
3	270166	49.51	21.423805148816
3	270723	49.61	21.290303179033
3	271280	49.71	21.171738676865
3	271837	49.81	21.073088534202
3	272394	49.91	20.998397350986
3	272959	50.01	20.950780076363
3	273516	50.11	20.932410326324
3	274073	50.21	20.942957108228
3	274630	50.31	20.978556897851
1	232	1.11	0
1	788	1.21	0
1	1344	1.31	0
1	1900	1.41	0
1	2456	1.51	0
1	3012	1.61	0
1	3568	1.71	0
1	4124	1.81	0
1	4680	1.91	0
1	5244	2.01	0
1	5800	2.11	0
1	6356	2.21	0
1	6912	2.31	0
1	7468	2.41	0
1	8024	2.51	0
1	8580	2.61	0
1	9136	2.71	0
1	9692	2.81	0
1	10248	2.91	0
1	10812	3.01	0
1	11368	3.11	0
1	11924	3.21	0
1	12480	3.31	0
1	13036	3.41	0
1	13592	3.51	0
1	14148	3.61	0
1	14704	3.71	0
1	15260	3.81	0
1	15816	3.91	0
1	16380	4.01	0
1	16936	4.11	0
1	17492	4.21	0
1	18048	4.31	0
1	18604	4.41	0
1	19160	4.51	0
1	19716	4.61	0
1	20272	4.71	0
1	20828	4.81	0
1	21384	4.91	0
1	21949	5.01	0
1	22506	5.11	0
1	23063	5.21	0
1	23620	5.31	0
1	24177	5.41	0
1	24734	5.51	0
1	25291	5.61	0
1	25848	5.71	0
1	26405	5.81	0
1	26962	5.91	0
1	27527	6.01	0
1	28084	6.11	0
1	28641	6.21	0
1	29198	6.31	0
1	29755	6.41	0
1	30312	6.51	0
1	30869	6.61	0
1	31426	6.71	0
1	31983	6.81	0
1	32540	6.91	0
1	33105	7.01	0
1	33662	7.11	0
1	34219	7.21	0
1	34776	7.31	0
1	35333	7.41	0
1	35890	7.51	0
1	36447	7.61	0
1	37004	7.71	0
1	37561	7.81	0
1	38118	7.91	0
1	38683	8.01	0
1	39240	8.11	0
1	39797	8.21	0
1	40354	8.31	0
1	40911	8.41	0
1	41468	8.51	0
1	42025	8.61	0
1	42582	8.71	0
1	43139	8.81	0
1	43696	8.91	0
1	44261	9.01	0
1	44818	9.11	0
1	45375	9.21	0
1	45932	9.31	0
1	46489	9.41	0
1	47046	9.51	0
1	47603	9.61	0
1	48160	9.71	0
1	48717	9.81	0
1	49274	9.91	0
1	49839	10.01	0
1	50396	10.11	0
1	50953	10.21	0
1	51510	10.31	0
1	52067	10.41	0
1	52624	10.51	0
1	53181	10.61	0
1	53738	10.71	0
1	54295	10.81	0
1	54852	10.91	0
1	55417	11.01	0
1	55974	11.11	0
1	56531	11.21	0
1	57088	11.31	0
1	57645	11.41	0
1	58202	11.51	0
1	58759	11.61	0
1	59316	11.71	0
1	59873	11.81	0
1	60430	11.91	0
1	60995	12.01	0
[...]
35	272442	49.969557035142	0.099998701943
35	273007	50.069555733769	0.099998698627
35	273564	50.169554429083	0.099998695314
35	274121	50.269566121104	0.100011692021
35	274678	50.369564809867	0.099998688763
36	836	1.26955817081	0.099999127447
36	1392	1.369557298257	0.099999127447
36	1948	1.469556425704	0.099999127447
36	2504	1.569555553151	0.099999127447
36	3060	1.669554680598	0.099999127447
36	3616	1.769566808045	0.100012127447
36	4172	1.869565935492	0.099999127447
36	4728	1.969565062939	0.099999127447
36	5292	2.069564190386	0.099999127447
36	5848	2.169563317833	0.099999127447
36	6404	2.26956244528	0.099999127447
36	6960	2.369561572727	0.099999127447
36	7516	2.469560700174	0.099999127447
36	8072	2.569559827621	0.099999127447
36	8628	2.669558955068	0.099999127447
36	9184	2.769558082515	0.099999127447
36	9740	2.869557209962	0.099999127447
36	10296	2.969556337409	0.099999127447
36	10860	3.069555464856	0.099999127447
36	11416	3.169554592303	0.099999127447
36	11972	3.26956671975	0.100012127447
36	12528	3.369565847197	0.099999127447
36	13084	3.469564974644	0.099999127447
36	13640	3.569564102091	0.099999127447
36	14196	3.669563229538	0.099999127447
36	14752	3.769562356985	0.099999127447
36	15308	3.869561484432	0.099999127447
36	15864	3.969560611879	0.099999127447
36	16428	4.069559739326	0.099999127447
36	16984	4.169558866773	0.099999127447
36	17540	4.26955799422	0.099999127447
36	18096	4.369557121667	0.099999127447
36	18652	4.469556249114	0.099999127447
36	19208	4.569555376561	0.099999127447
36	19764	4.669554504008	0.099999127447
36	20320	4.769566631455	0.100012127447
36	20876	4.869565758902	0.099999127447
36	21432	4.969564886349	0.099999127447
36	21997	5.069564013796	0.099999127447
36	22554	5.169563141244	0.099999127448
36	23111	5.269562268694	0.09999912745
36	23668	5.369561396151	0.099999127457
36	24225	5.469560523629	0.099999127478
36	24782	5.569559651145	0.099999127516
36	25339	5.669558778721	0.099999127576
36	25896	5.769557906381	0.09999912766
36	26453	5.86955703415	0.099999127769
36	27010	5.969556162048	0.099999127898
36	27575	6.069555290094	0.099999128046
36	28132	6.169554418302	0.099999128208
36	28689	6.269566546687	0.100012128385
36	29246	6.369565675261	0.099999128574
36	29803	6.469564804034	0.099999128773
36	30360	6.569563933012	0.099999128978
36	30917	6.669563062205	0.099999129193
36	31474	6.769562191619	0.099999129414
36	32031	6.869561321258	0.099999129639
36	32588	6.969560451113	0.099999129855
36	33153	7.069559581172	0.099999130059
36	33710	7.169558711421	0.099999130249
36	34267	7.269557841836	0.099999130415
36	34824	7.369556972388	0.099999130552
36	35381	7.469556103048	0.09999913066
36	35938	7.56955523378	0.099999130732
36	36495	7.669554364547	0.099999130767
36	37052	7.76956649532	0.100012130773
36	37609	7.869565626069	0.099999130749
36	38166	7.969564756766	0.099999130697
36	38731	8.06956388739	0.099999130624
36	39288	8.169563017926	0.099999130536
36	39845	8.269562148358	0.099999130432
36	40402	8.369561278671	0.099999130313
36	40959	8.469560408855	0.099999130184
36	41516	8.569559538897	0.099999130042
36	42073	8.669558668786	0.099999129889
36	42630	8.769557798515	0.099999129729
36	43187	8.869556928074	0.099999129559
36	43744	8.969556057456	0.099999129382
36	44309	9.069555186651	0.099999129195
36	44866	9.169554315656	0.099999129005
36	45423	9.26956644446	0.100012128804
36	45980	9.36956557306	0.0999991286
36	46537	9.469564701448	0.099999128388
36	47094	9.569563829617	0.099999128169
36	47651	9.669562957563	0.099999127946
36	48208	9.769562085286	0.099999127723
36	48765	9.869561212797	0.099999127511
36	49322	9.969560340112	0.099999127315
36	49887	10.069559467256	0.099999127144
36	50444	10.16955859426	0.099999127004
36	51001	10.26955772116	0.0999991269
36	51558	10.369556847991	0.099999126831
36	52115	10.469555974792	0.099999126801
36	52672	10.569555101595	0.099999126803
36	53229	10.66955422843	0.099999126835
36	53786	10.769566355322	0.100012126892
36	54343	10.869565482289	0.099999126967
36	54900	10.969564609349	0.09999912706
36	55465	11.069563736518	0.099999127169
36	56022	11.169562863809	0.099999127291
36	56579	11.269561991234	0.099999127425
36	57136	11.369561118801	0.099999127567
36	57693	11.469560246524	0.099999127723
36	58250	11.569559374409	0.099999127885
36	58807	11.669558502465	0.099999128056
36	59364	11.769557630699	0.099999128234
36	59921	11.86955675912	0.099999128421
36	60478	11.969555887732	0.099999128612
36	61043	12.069555016543	0.099999128811
36	61600	12.16955414555	0.099999129007
36	62157	12.269566274744	0.100012129194
36	62714	12.36956540411	0.099999129366
36	63271	12.469564533626	0.099999129516
36	63828	12.569563663261	0.099999129635
36	64385	12.669562792981	0.09999912972
36	64942	12.769561922751	0.09999912977
36	65499	12.869561052532	0.099999129781
36	66056	12.969560182295	0.099999129763
36	66621	13.069559312008	0.099999129713
36	67178	13.16955844165	0.099999129642
36	67735	13.269557571198	0.099999129548
36	68292	13.369556700634	0.099999129436
36	68849	13.469555829945	0.099999129311
36	69406	13.569554959116	0.099999129171
36	69963	13.669554088138	0.099999129022
36	70520	13.769566216999	0.100012128861
36	71077	13.86956534569	0.099999128691
36	71634	13.969564474204	0.099999128514
36	72199	14.06956360253	0.099999128326
36	72756	14.169562730662	0.099999128132
36	73313	14.269561858592	0.09999912793
36	73870	14.369560986315	0.099999127723
36	74427	14.469560113823	0.099999127508
36	74984	14.569559241116	0.099999127293
36	75541	14.669558368188	0.099999127072
36	76098	14.769557495047	0.099999126859
36	76655	14.869556621705	0.099999126658
36	77212	14.969555748186	0.099999126481
36	77777	15.069554874517	0.099999126331
36	78334	15.169554000732	0.099999126215
36	78891	15.269566126868	0.100012126136
36	79448	15.36956525296	0.099999126092
36	80005	15.469564379044	0.099999126084
36	80562	15.569563505151	0.099999126107
36	81119	15.669562631307	0.099999126156
36	81676	15.769561757533	0.099999126226
36	82233	15.869560883849	0.099999126316
36	82790	15.969560010272	0.099999126423
36	83355	16.069559136812	0.09999912654
36	83912	16.169558263483	0.099999126671
36	84469	16.269557390298	0.099999126815
36	85026	16.369556517265	0.099999126967
36	85583	16.469555644395	0.09999912713
36	86140	16.569554771694	0.099999127299
36	86697	16.669566899172	0.100012127478
36	87254	16.769566026837	0.099999127665
36	87811	16.869565154695	0.099999127858
36	88368	16.969564282752	0.099999128057
36	88933	17.069563411015	0.099999128263
36	89490	17.169562539482	0.099999128467
36	90047	17.269561668146	0.099999128664
36	90604	17.369560796994	0.099999128848
36	91161	17.469559926005	0.099999129011
36	91718	17.569559055149	0.099999129144
36	92275	17.669558184393	0.099999129244
36	92832	17.769557313701	0.099999129308
36	93389	17.869556443036	0.099999129335
36	93946	17.969555572363	0.099999129327
36	94511	18.069554701652	0.099999129289
36	95068	18.169566830879	0.100012129227
36	95625	18.269565960022	0.099999129143
36	96182	18.369565089064	0.099999129042
36	96739	18.46956421799	0.099999128926
36	97296	18.569563346784	0.099999128794
36	97853	18.669562475437	0.099999128653
36	98410	18.769561603937	0.0999991285
36	98967	18.869560732272	0.099999128335
36	99524	18.969559860438	0.099999128166
36	100089	19.069558988424	0.099999127986
36	100646	19.16955811622	0.099999127796
36	101203	19.269557243821	0.099999127601
36	101760	19.369556371222	0.099999127401
36	102317	19.469555498413	0.099999127191
36	102874	19.56955462539	0.099999126977
36	103431	19.669566752155	0.100012126765
36	103988	19.769565878714	0.099999126559
36	104545	19.869565005081	0.099999126367
36	105102	19.969564131276	0.099999126195
36	105667	20.06956325733	0.099999126054
36	106224	20.169562383274	0.099999125944
36	106781	20.269561509145	0.099999125871
36	107338	20.369560634983	0.099999125838
36	107895	20.469559760819	0.099999125836
36	108452	20.569558886684	0.099999125865
36	109009	20.669558012606	0.099999125922
36	109566	20.769557138603	0.099999125997
36	110123	20.869556264694	0.099999126091
36	110680	20.969555390897	0.099999126203
36	111245	21.069554517223	0.099999126326
36	111802	21.169566643686	0.100012126463
36	112359	21.269565770297	0.099999126611
36	112916	21.369564897065	0.099999126768
36	113473	21.469564024001	0.099999126936
36	114030	21.56956315111	0.099999127109
36	114587	21.669562278402	0.099999127292
36	115144	21.769561405884	0.099999127482
36	115701	21.869560533562	0.099999127678
36	116258	21.969559661444	0.099999127882
36	116823	22.069558789535	0.099999128091
36	117380	22.169557917835	0.0999991283
36	117937	22.269557046335	0.0999991285
36	118494	22.369556175024	0.099999128689
36	119051	22.469555303881	0.099999128857
36	119608	22.569554432873	0.099999128992
36	120165	22.669566561972	0.100012129099
36	120722	22.769565691138	0.099999129166
36	121279	22.869564820335	0.099999129197
36	121836	22.969563949528	0.099999129193
36	122401	23.069563078689	0.099999129161
36	122958	23.169562207792	0.099999129103
36	123515	23.269561336813	0.099999129021
36	124072	23.369560465736	0.099999128923
36	124629	23.469559594544	0.099999128808
36	125186	23.569558723226	0.099999128682
36	125743	23.669557851766	0.09999912854
36	126300	23.769556980156	0.09999912839
36	126857	23.869556108386	0.09999912823
36	127414	23.969555236447	0.099999128061
36	127979	24.069554364331	0.099999127884
36	128536	24.16956649203	0.100012127699
36	129093	24.269565619535	0.099999127505
36	129650	24.369564746842	0.099999127307
36	130207	24.469563873941	0.099999127099
36	130764	24.569563000832	0.099999126891
36	131321	24.669562127509	0.099999126677
36	131878	24.769561253983	0.099999126474
36	132435	24.869560380267	0.099999126284
36	132992	24.969559506384	0.099999126117
36	133557	25.069558632361	0.099999125977
36	134114	25.169557758231	0.09999912587
36	134671	25.26955688403	0.099999125799
36	135228	25.369556009795	0.099999125765
36	135785	25.469555135563	0.099999125768
36	136342	25.569554261362	0.099999125799
36	136899	25.669566387218	0.100012125856
36	137456	25.769565513153	0.099999125935
36	138013	25.869564639184	0.099999126031
36	138570	25.969563765327	0.099999126143
36	139135	26.069562891598	0.099999126271
36	139692	26.169562018006	0.099999126408
36	140249	26.269561144564	0.099999126558
36	140806	26.369560271279	0.099999126715
36	141363	26.469559398162	0.099999126883
36	141920	26.56955852522	0.099999127058
36	142477	26.669557652464	0.099999127244
36	143034	26.7695567799	0.099999127436
36	143591	26.869555907532	0.099999127632
36	144148	26.96955503537	0.099999127838
36	144713	27.069554163416	0.099999128046
36	145270	27.169566291674	0.100012128258
36	145827	27.269565420135	0.099999128461
36	146384	27.369564548785	0.09999912865
36	146941	27.469563677602	0.099999128817
36	147498	27.569562806558	0.099999128956
36	148055	27.669561935619	0.099999129061
36	148612	27.769561064748	0.099999129129
36	149169	27.869560193911	0.099999129163
36	149726	27.96955932307	0.099999129159
36	150291	28.069558452198	0.099999129128
36	150848	28.169557581267	0.099999129069
36	151405	28.269556710257	0.09999912899
36	151962	28.36955583915	0.099999128893
36	152519	28.46955496793	0.09999912878
36	153076	28.569554096584	0.099999128654
36	153633	28.669566225098	0.100012128514
36	154190	28.769565353462	0.099999128364
36	154747	28.869564481668	0.099999128206
36	155304	28.969563609706	0.099999128038
36	155869	29.069562737566	0.09999912786
36	156426	29.169561865242	0.099999127676
36	156983	29.269560992725	0.099999127483
36	157540	29.36956012001	0.099999127285
36	158097	29.469559247089	0.099999127079
36	158654	29.569558373958	0.099999126869
36	159211	29.669557500616	0.099999126658
36	159768	29.769556627072	0.099999126456
36	160325	29.869555753337	0.099999126265
36	160882	29.969554879434	0.099999126097
36	161447	30.069554005392	0.099999125958
36	162004	30.169566131245	0.100012125853
36	162561	30.269565257031	0.099999125786
36	163118	30.369564382792	0.099999125761
36	163675	30.469563508571	0.099999125779
36	164232	30.569562634404	0.099999125833
36	164789	30.669561760339	0.099999125935
36	165346	30.769560886416	0.099999126077
36	165903	30.869560012675	0.099999126259
36	166460	30.969559139162	0.099999126487
36	167025	31.069558265914	0.099999126752
36	167582	31.169557392973	0.099999127059
36	168139	31.269556520381	0.099999127408
36	168696	31.369555648182	0.099999127801
36	169253	31.469554776413	0.099999128231
36	169810	31.569566905122	0.100012128709
36	170367	31.669566034344	0.099999129222
36	170924	31.769565164126	0.099999129782
36	171481	31.869564294506	0.09999913038
36	172038	31.969563425527	0.099999131021
36	172603	32.069562557227	0.0999991317
36	173160	32.169561689642	0.099999132415
36	173717	32.269560822795	0.099999133153
36	174274	32.3695599567	0.099999133905
36	174831	32.46955909135	0.09999913465
36	175388	32.569558226725	0.099999135375
36	175945	32.669557362781	0.099999136056
36	176502	32.769556499461	0.09999913668
36	177059	32.869555636687	0.099999137226
36	177616	32.96955477437	0.099999137683
36	178181	33.069566912408	0.100012138038
36	178738	33.169566050689	0.099999138281
36	179295	33.269565189097	0.099999138408
36	179852	33.369564327507	0.09999913841
36	180409	33.46956346579	0.099999138283
36	180966	33.569562603815	0.099999138025
36	181523	33.669561741443	0.099999137628
36	182080	33.76956087854	0.099999137097
36	182637	33.869560014961	0.099999136421
36	183194	33.96955915057	0.099999135609
36	183759	34.069558285223	0.099999134653
36	184316	34.169557418776	0.099999133553
36	184873	34.269556551084	0.099999132308
36	185430	34.369555682004	0.09999913092
36	185987	34.469554811391	0.099999129387
36	186544	34.569566939101	0.10001212771
36	187101	34.669566064997	0.099999125896
36	187658	34.769565188952	0.099999123955
36	188215	34.869564310849	0.099999121897
36	188772	34.969563430592	0.099999119743
36	189337	35.069562548097	0.099999117505
36	189894	35.169561663305	0.099999115208
36	190451	35.269560776172	0.099999112867
36	191008	35.369559886672	0.0999991105
36	191565	35.469558994796	0.099999108124
36	192122	35.569558100545	0.099999105749
36	192679	35.669557203928	0.099999103383
36	193236	35.769556304964	0.099999101036
36	193793	35.869555403679	0.099999098715
36	194350	35.969554500102	0.099999096423
36	194915	36.069566594272	0.10001209417
36	195472	36.169565686227	0.099999091955
36	196029	36.269564776006	0.099999089779
36	196586	36.369563863658	0.099999087652
36	197143	36.46956294923	0.099999085572
36	197700	36.56956203277	0.09999908354
36	198257	36.66956111433	0.09999908156
36	198814	36.769560193965	0.099999079635
36	199371	36.869559271729	0.099999077764
36	199928	36.969558347679	0.09999907595
36	200493	37.069557421868	0.099999074189
36	201050	37.169556494349	0.099999072481
36	201607	37.269555565165	0.099999070816
36	202164	37.369554634347	0.099999069182
36	202721	37.46956670191	0.100012067563
36	203278	37.569565767854	0.099999065944
36	203835	37.669564832162	0.099999064308
36	204392	37.769563894795	0.099999062633
36	204949	37.869562955702	0.099999060907
36	205506	37.969562014817	0.099999059115
36	206071	38.069561072063	0.099999057246
36	206628	38.169560127358	0.099999055295
36	207185	38.269559180607	0.099999053249
36	207742	38.369558231713	0.099999051106
36	208299	38.469557280582	0.099999048869
36	208856	38.569556327102	0.09999904652
36	209413	38.669555371175	0.099999044073
36	209970	38.769554412685	0.09999904151
36	210527	38.869566451527	0.100012038842
36	211084	38.969565487587	0.09999903606
36	211649	39.069564520757	0.09999903317
36	212206	39.169563550923	0.099999030166
36	212763	39.269562577975	0.099999027052
36	213320	39.369561601799	0.099999023824
36	213877	39.469560622283	0.099999020484
36	214434	39.569559639316	0.099999017033
36	214991	39.669558652794	0.099999013478
36	215548	39.769557662622	0.099999009828
36	216105	39.86955666872	0.099999006098
36	216662	39.96955567102	0.0999990023
36	217227	40.069554669477	0.099998998457
36	217784	40.169566664062	0.100011994585
36	218341	40.269565654767	0.099998990705
36	218898	40.369564641602	0.099998986835
36	219455	40.469563624588	0.099998982986
36	220012	40.569562603762	0.099998979174
36	220569	40.669561579167	0.099998975405
36	221126	40.769560550856	0.099998971689
36	221683	40.869559518891	0.099998968035
36	222240	40.969558483333	0.099998964442
36	222805	41.069557444255	0.099998960922
36	223362	41.169556401726	0.099998957471
36	223919	41.269555355827	0.099998954101
36	224476	41.369554306632	0.099998950805
36	225033	41.469566254226	0.100011947594
36	225590	41.56956519869	0.099998944464
36	226147	41.669564140111	0.099998941421
36	226704	41.769563078575	0.099998938464
36	227261	41.869562014169	0.099998935594
36	227818	41.969560946979	0.09999893281
36	228383	42.069559877099	0.09999893012
36	228940	42.169558804607	0.099998927508
36	229497	42.269557729582	0.099998924975
36	230054	42.369556652084	0.099998922502
36	230611	42.469555572162	0.099998920078
36	231168	42.569554489847	0.099998917685
36	231725	42.669566405152	0.100011915305
36	232282	42.769565318068	0.099998912916
36	232839	42.869564228575	0.099998910507
36	233396	42.969563136637	0.099998908062
36	233961	43.06956204221	0.099998905573
36	234518	43.169560945235	0.099998903025
36	235075	43.269559845653	0.099998900418
36	235632	43.369558743395	0.099998897742
36	236189	43.469557638391	0.099998894996
36	236746	43.569556530563	0.099998892172
36	237303	43.669555419835	0.099998889272
36	237860	43.769554306124	0.099998886289
36	238417	43.869566189348	0.100011883224
36	238974	43.969565069424	0.099998880076
36	239539	44.069563946269	0.099998876845
36	240096	44.169562819795	0.099998873526
36	240653	44.269561689916	0.099998870121
36	241210	44.369560556544	0.099998866628
36	241767	44.469559419595	0.099998863051
36	242324	44.569558278983	0.099998859388
36	242881	44.669557134624	0.099998855641
36	243438	44.769555986452	0.099998851828
36	243995	44.869554834408	0.099998847956
36	244552	44.96956667845	0.100011844042
36	245117	45.069565518553	0.099998840103
36	245674	45.16956435471	0.099998836157
36	246231	45.269563186938	0.099998832228
36	246788	45.369562015267	0.099998828329
36	247345	45.469560839741	0.099998824474
36	247902	45.569559660416	0.099998820675
36	248459	45.66955847736	0.099998816944
36	249016	45.769557290645	0.099998813285
36	249573	45.869556100349	0.099998809704
36	250130	45.969554906558	0.099998806209
36	250695	46.069566709362	0.100011802804
36	251252	46.16956550885	0.099998799488
36	251809	46.269564305119	0.099998796269
36	252366	46.369563098263	0.099998793144
36	252923	46.469561888387	0.099998790124
36	253480	46.569560675587	0.0999987872
36	254037	46.669559459968	0.099998784381
36	254594	46.769558241632	0.099998781664
36	255151	46.869557020681	0.099998779049
36	255708	46.969555797225	0.099998776544
36	256273	47.069554571364	0.099998774139
36	256830	47.169566343198	0.100011771834
36	257387	47.269565112818	0.09999876962
36	257944	47.369563880303	0.099998767485
36	258501	47.469562645711	0.099998765408
36	259058	47.56956140909	0.099998763379
36	259615	47.669560170469	0.099998761379
36	260172	47.76955892985	0.099998759381
36	260729	47.869557687229	0.099998757379
36	261286	47.969556442579	0.09999875535
36	261851	48.069555195869	0.09999875329
36	262408	48.169566947055	0.100011751186
36	262965	48.269565696089	0.099998749034
36	263522	48.369564442913	0.099998746824
36	264079	48.469563187468	0.099998744555
36	264636	48.569561929688	0.09999874222
36	265193	48.669560669506	0.099998739818
36	265750	48.769559406853	0.099998737347
36	266307	48.869558141656	0.099998734803
36	266864	48.969556873842	0.099998732186
36	267429	49.069555603335	0.099998729493
36	267986	49.16955433006	0.099998726725
36	268543	49.26956605394	0.10001172388
36	269100	49.369564774896	0.099998720956
36	269657	49.469563492851	0.099998717955
36	270214	49.569562207725	0.099998714874
36	270771	49.669560919446	0.099998711721
36	271328	49.769559627955	0.099998708509
36	271885	49.869558333199	0.099998705244
36	272442	49.969557035142	0.099998701943
36	273007	50.069555733769	0.099998698627
36	273564	50.169554429083	0.099998695314
36	274121	50.269566121104	0.100011692021
36	274678	50.369564809867	0.099998688763
