file 1111064 1501675695                                         
version 2
run SinusoidalJammingDetail-350-20170802-14:07:54-76062
attr CACCSpacing 20
attr attackAcc -30
attr attackPos 7
attr attackSpeed 150
attr attackStart 32
attr attacker 1
attr beaconInterval 0.1
attr configname SinusoidalJammingDetail
attr controller 1
attr datetime 20170802-14:07:54
attr experiment SinusoidalJammingDetail
attr fakeAcc "(1 == 4)"
attr fakePos "(1 == 2)"
attr fakeSpeed "(1 == 3)"
attr inifile omnetpp_350.ini
attr iterationvars "$leaderSpeed=80, $controller=1, $CACCSpacing=20, $sController=\"CACC\", $attacker=1, $attackStart=32, $attackSpeed=150, $attackPos=7, $attackAcc=-30, $0=20, $1=0, $nCars=8, $platoonSize=8, $nLanes=1, $beaconInterval=0.1, $priority=2, $packetSize=200, $ploegH=0.5, $leaderHeadway=1.2, $fakeSpeed=(1 == 3), $fakeAcc=(1 == 4), $fakePos=(1 == 2)"
attr iterationvarsf leaderSpeed=80,controller=1,CACCSpacing=20,sController=CACC,attacker=1,attackStart=32,attackSpeed=150,attackPos=7,attackAcc=-30,20,0,nCars=8,platoonSize=8,nLanes=1,beaconInterval=0.1,priority=2,packetSize=200,ploegH=0.5,leaderHeadway=1.2,fakeSpeed=(1_==_3),fakeAcc=(1_==_4),fakePos=(1_==_2)-
attr leaderHeadway 1.2
attr leaderSpeed 80
attr measurement "$leaderSpeed=80, $controller=1, $CACCSpacing=20, $sController=\"CACC\", $attacker=1, $attackStart=32, $attackSpeed=150, $attackPos=7, $attackAcc=-30, $0=20, $1=0, $nCars=8, $platoonSize=8, $nLanes=1, $beaconInterval=0.1, $priority=2, $packetSize=200, $ploegH=0.5, $leaderHeadway=1.2, $fakeSpeed=(1 == 3), $fakeAcc=(1 == 4), $fakePos=(1 == 2)"
attr nCars 8
attr nLanes 1
attr network scenario
attr packetSize 200
attr platoonSize 8
attr ploegH 0.5
attr priority 2
attr processid 76062
attr repetition 0
attr replication #0
attr resultdir results
attr runnumber 350
attr sController "\"CACC\""
attr seedset 0
param **.coreDebug false
param **.debug false
param **.headway 0.1s
param **.numberOfCars 8
param **.numberOfCarsPerPlatoon 8
param **.numberOfLanes 1
param **.numericController 1
param **.traffic.nCars 8
param **.traffic.nLanes 1
param **.traffic.platoonInsertDistance 20m
param **.traffic.platoonInsertHeadway 0s
param **.traffic.platoonInsertSpeed 80kmph
param **.traffic.platoonInsertTime "1 s"
param **.traffic.platoonLeaderHeadway 1.2s
param **.traffic.platoonSize 8
param **.traffic.platooningVType "\"vtypeauto\""
param **.traffic_type "\"PlatoonsTrafficManager\""
param *.**.nic.mac1609_4.bitrate 6Mbps
param *.**.nic.mac1609_4.txPower 100mW
param *.**.nic.mac1609_4.useServiceChannel false
param *.**.nic.phy80211p.analogueModels "xmldoc(\"config.xml\")"
param *.**.nic.phy80211p.decider "xmldoc(\"config.xml\")"
param *.**.nic.phy80211p.maxTXPower 100mW
param *.**.nic.phy80211p.sensitivity -94dBm
param *.**.nic.phy80211p.thermalNoise -95dBm
param *.**.nic.phy80211p.usePropagationDelay true
param *.**.nic.phy80211p.useThermalNoise true
param *.annotations.draw false
param *.connectionManager.alpha 2.0
param *.connectionManager.carrierFrequency "5.890e9 Hz"
param *.connectionManager.pMax 100mW
param *.connectionManager.sat -94dBm
param *.connectionManager.sendDirect true
param *.manager.autoShutdown true
param *.manager.commandLine "\"sumo --remote-port $port --seed $seed --configuration-file $configFile\""
param *.manager.configFile "\"./sumocfg/freeway.sumo.cfg\""
param *.manager.host "\"localhost\""
param *.manager.margin 25
param *.manager.moduleDisplayString "\"\""
param *.manager.moduleName "\"node\""
param *.manager.moduleType "\"Car\""
param *.manager.updateInterval 0.01s
param *.node[*].appl.attackStart 32s
param *.node[*].appl.attackerType 1
param *.node[*].appl.simulationDuration "60 s"
param *.node[*].appl_type "\"SimplePlatooningApp\""
param *.node[*].helper.nCars 8
param *.node[*].helper.nLanes 1
param *.node[*].helper.platoonSize 8
param *.node[*].helper_type "\"PositionHelper\""
param *.node[*].mobility.x 0
param *.node[*].mobility.y 0
param *.node[*].mobility.z 1.895
param *.node[*].prot.attackStart 32s
param *.node[*].prot.attackerType 1
param *.node[*].prot.attackingNode 3
param *.node[*].prot.beaconingInterval 0.1s
param *.node[*].prot.fakeAcc "(1 == 4)"
param *.node[*].prot.fakePos "(1 == 2)"
param *.node[*].prot.fakeSpeed "(1 == 3)"
param *.node[*].prot.maliciousAcc "-30 mpss"
param *.node[*].prot.maliciousSpeed 150kmph
param *.node[*].prot.packetSize 200
param *.node[*].prot.priority 2
param *.node[*].prot.shiftX "7 m"
param *.node[*].prot.useControllerAcceleration true
param *.node[*].protocol_type "\"SimplePlatooningBeaconing\""
param *.node[*].scenario.accHeadway 0.1s
param *.node[*].scenario.caccC1 0.5
param *.node[*].scenario.caccOmegaN "0.2 Hz"
param *.node[*].scenario.caccSpacing 20m
param *.node[*].scenario.caccXi 1
param *.node[*].scenario.controller "\"CACC\""
param *.node[*].scenario.engineTau "0.5 s"
param *.node[*].scenario.leaderHeadway 1.2s
param *.node[*].scenario.leaderOscillationFrequency "0.2 Hz"
param *.node[*].scenario.leaderSpeed 80kmph
param *.node[*].scenario.oscillationAmplitude "10 kmph"
param *.node[*].scenario.ploegH 0.5s
param *.node[*].scenario.ploegKd 0.7
param *.node[*].scenario.ploegKp 0.2
param *.node[*].scenario.startOscillating "5 s"
param *.node[*].scenario.useRealisticEngine false
param *.node[*].scenario_type "\"SinusoidalScenario\""
param *.node[*].unicast.packetLossRate 0
param *.obstacles.debug false
param *.playgroundSizeX 65000m
param *.playgroundSizeY 25000m
param *.playgroundSizeZ 50m
param *.world.use2D false
param *.world.useTorus false

vector 0  scenario.node[0].appl  distance  ETV
vector 1  scenario.node[0].appl  relativeSpeed  ETV
vector 2  scenario.node[0].appl  nodeId  ETV
vector 6  scenario.node[0].appl  acceleration  ETV
vector 7  scenario.node[0].appl  controllerAcceleration  ETV
vector 3  scenario.node[0].appl  speed  ETV
vector 4  scenario.node[0].appl  posx  ETV
vector 5  scenario.node[0].appl  posy  ETV
vector 22  scenario.node[1].appl  distance  ETV
vector 23  scenario.node[1].appl  relativeSpeed  ETV
vector 24  scenario.node[1].appl  nodeId  ETV
vector 28  scenario.node[1].appl  acceleration  ETV
vector 29  scenario.node[1].appl  controllerAcceleration  ETV
vector 25  scenario.node[1].appl  speed  ETV
vector 26  scenario.node[1].appl  posx  ETV
vector 27  scenario.node[1].appl  posy  ETV
vector 44  scenario.node[2].appl  distance  ETV
vector 45  scenario.node[2].appl  relativeSpeed  ETV
vector 46  scenario.node[2].appl  nodeId  ETV
vector 50  scenario.node[2].appl  acceleration  ETV
vector 51  scenario.node[2].appl  controllerAcceleration  ETV
vector 47  scenario.node[2].appl  speed  ETV
vector 48  scenario.node[2].appl  posx  ETV
vector 49  scenario.node[2].appl  posy  ETV
vector 66  scenario.node[3].appl  distance  ETV
vector 67  scenario.node[3].appl  relativeSpeed  ETV
vector 68  scenario.node[3].appl  nodeId  ETV
vector 72  scenario.node[3].appl  acceleration  ETV
vector 73  scenario.node[3].appl  controllerAcceleration  ETV
vector 69  scenario.node[3].appl  speed  ETV
vector 70  scenario.node[3].appl  posx  ETV
vector 71  scenario.node[3].appl  posy  ETV
vector 88  scenario.node[4].appl  distance  ETV
vector 89  scenario.node[4].appl  relativeSpeed  ETV
vector 90  scenario.node[4].appl  nodeId  ETV
vector 94  scenario.node[4].appl  acceleration  ETV
vector 95  scenario.node[4].appl  controllerAcceleration  ETV
vector 91  scenario.node[4].appl  speed  ETV
vector 92  scenario.node[4].appl  posx  ETV
vector 93  scenario.node[4].appl  posy  ETV
vector 110  scenario.node[5].appl  distance  ETV
vector 111  scenario.node[5].appl  relativeSpeed  ETV
vector 112  scenario.node[5].appl  nodeId  ETV
vector 116  scenario.node[5].appl  acceleration  ETV
vector 117  scenario.node[5].appl  controllerAcceleration  ETV
vector 113  scenario.node[5].appl  speed  ETV
vector 114  scenario.node[5].appl  posx  ETV
vector 115  scenario.node[5].appl  posy  ETV
vector 132  scenario.node[6].appl  distance  ETV
vector 133  scenario.node[6].appl  relativeSpeed  ETV
vector 134  scenario.node[6].appl  nodeId  ETV
vector 138  scenario.node[6].appl  acceleration  ETV
vector 139  scenario.node[6].appl  controllerAcceleration  ETV
vector 135  scenario.node[6].appl  speed  ETV
vector 136  scenario.node[6].appl  posx  ETV
vector 137  scenario.node[6].appl  posy  ETV
vector 154  scenario.node[7].appl  distance  ETV
vector 155  scenario.node[7].appl  relativeSpeed  ETV
vector 156  scenario.node[7].appl  nodeId  ETV
vector 160  scenario.node[7].appl  acceleration  ETV
vector 161  scenario.node[7].appl  controllerAcceleration  ETV
vector 157  scenario.node[7].appl  speed  ETV
vector 158  scenario.node[7].appl  posx  ETV
vector 159  scenario.node[7].appl  posy  ETV
vector 80  scenario.node[3].prot  frontDelay  ETV
vector 78  scenario.node[3].prot  frontDelayId  ETV
vector 58  scenario.node[2].prot  frontDelay  ETV
vector 56  scenario.node[2].prot  frontDelayId  ETV
vector 168  scenario.node[7].prot  frontDelay  ETV
vector 166  scenario.node[7].prot  frontDelayId  ETV
vector 35  scenario.node[1].prot  leaderDelay  ETV
vector 33  scenario.node[1].prot  leaderDelayId  ETV
vector 36  scenario.node[1].prot  frontDelay  ETV
vector 34  scenario.node[1].prot  frontDelayId  ETV
vector 57  scenario.node[2].prot  leaderDelay  ETV
vector 55  scenario.node[2].prot  leaderDelayId  ETV
vector 79  scenario.node[3].prot  leaderDelay  ETV
vector 77  scenario.node[3].prot  leaderDelayId  ETV
vector 101  scenario.node[4].prot  leaderDelay  ETV
vector 99  scenario.node[4].prot  leaderDelayId  ETV
vector 123  scenario.node[5].prot  leaderDelay  ETV
vector 121  scenario.node[5].prot  leaderDelayId  ETV
vector 145  scenario.node[6].prot  leaderDelay  ETV
vector 143  scenario.node[6].prot  leaderDelayId  ETV
vector 167  scenario.node[7].prot  leaderDelay  ETV
vector 165  scenario.node[7].prot  leaderDelayId  ETV
vector 124  scenario.node[5].prot  frontDelay  ETV
vector 122  scenario.node[5].prot  frontDelayId  ETV
vector 102  scenario.node[4].prot  frontDelay  ETV
vector 100  scenario.node[4].prot  frontDelayId  ETV
vector 146  scenario.node[6].prot  frontDelay  ETV
vector 144  scenario.node[6].prot  frontDelayId  ETV
vector 8  scenario.node[0].prot  nodeId  ETV
vector 9  scenario.node[0].prot  busyTime  ETV
vector 10  scenario.node[0].prot  collisions  ETV
vector 30  scenario.node[1].prot  nodeId  ETV
vector 31  scenario.node[1].prot  busyTime  ETV
vector 32  scenario.node[1].prot  collisions  ETV
vector 52  scenario.node[2].prot  nodeId  ETV
vector 53  scenario.node[2].prot  busyTime  ETV
vector 54  scenario.node[2].prot  collisions  ETV
vector 74  scenario.node[3].prot  nodeId  ETV
vector 75  scenario.node[3].prot  busyTime  ETV
vector 76  scenario.node[3].prot  collisions  ETV
vector 96  scenario.node[4].prot  nodeId  ETV
vector 97  scenario.node[4].prot  busyTime  ETV
vector 98  scenario.node[4].prot  collisions  ETV
vector 118  scenario.node[5].prot  nodeId  ETV
vector 119  scenario.node[5].prot  busyTime  ETV
vector 120  scenario.node[5].prot  collisions  ETV
vector 140  scenario.node[6].prot  nodeId  ETV
vector 141  scenario.node[6].prot  busyTime  ETV
vector 142  scenario.node[6].prot  collisions  ETV
vector 162  scenario.node[7].prot  nodeId  ETV
vector 163  scenario.node[7].prot  busyTime  ETV
vector 164  scenario.node[7].prot  collisions  ETV
7	11235 9288 232 217736 1.11 40.11 391 -1.5 1.5 -11.678006540168 632.70678305184
6	20523 12282 232 217736 1.11 40.11 391 -1.4722746795719 1.4513430531448 -12.909586123883 428.23904744412
5	32805 7923 232 217736 1.11 40.11 391 36.55 36.55 14291.05 522337.8775
4	40728 11794 232 217736 1.11 40.11 391 203.66208725002 1074.3905957382 250364.79793532 185110977.12274
3	52522 11798 232 217736 1.11 40.11 391 20.932411654916 24.18693697487 8729.05528492 195167.1734602
1	64320 6359 232 217736 1.11 40.11 391 0 0 0 0
0	70679 6750 232 217736 1.11 40.11 391 -1 -1 -391 391
2	77429 6359 232 217736 1.11 40.11 391 0 0 0 0
10	83788 558 5102 217036 2 40 39 0 0 0 0
9	84346 754 5102 217036 2 40 39 0.022969 0.02625 1.020469 0.026711949961
8	85100 519 5102 217036 2 40 39 0 0 0 0
51	85619 12666 234 217738 1.11 40.11 391 -1.4951715946627 1.4969403250498 31.887927003755 497.03141155383
50	98285 12700 234 217738 1.11 40.11 391 -1.4749478788829 1.4483793281585 32.967506742814 354.3703942697
49	110985 8314 234 217738 1.11 40.11 391 36.55 36.55 14291.05 522337.8775
48	119299 12171 234 217738 1.11 40.11 391 155.66208724976 1050.254968413 232407.45942936 163580594.39053
47	131470 12181 234 217738 1.11 40.11 391 20.933105930695 25.884188722798 8969.3063148235 206588.70734714
45	143651 13202 234 217738 1.11 40.11 391 -0.9585582806277 0.035321622755461 -39.747752515489 29.869633094883
44	156853 12168 234 217738 1.11 40.11 391 16.101448733486 20.07036870848 7724.209151251 152796.97308084
46	169021 6750 234 217738 1.11 40.11 391 2 2 782 1564
58	175771 15541 900 217848 1.22965940166 40.129654423675 390 0.099987140922 0.100000243928 38.999995263565 3.899999053875
57	191312 15545 1038 217429 1.254913362325 40.054882227489 389 0.09990917403 0.100091242737 38.899982106714 3.8899970614795
56	206857 10561 900 217848 1.22965940166 40.129654423675 390 2 2 780 1560
55	217418 10564 1038 217429 1.254913362325 40.054882227489 389 2 2 778 1556
54	227982 558 5104 217038 2 40 39 0 0 0 0
53	228540 793 5104 217038 2 40 39 0.022969 0.02625 1.020469 0.026711949961
52	229333 558 5104 217038 2 40 39 2 2 78 156
73	229891 12647 235 217739 1.11 40.11 391 -1.4890347540707 1.4892302570484 39.46090726102 487.47313003176
72	242538 12687 235 217739 1.11 40.11 391 -1.4633940760582 1.435825020403 40.429370525492 352.01671181375
71	255225 8314 235 217739 1.11 40.11 391 36.55 36.55 14291.05 522337.8775
70	263539 12180 235 217739 1.11 40.11 391 131.66208724976 1028.7931490704 223078.3989601 152759044.40893
69	275719 12172 235 217739 1.11 40.11 391 20.945896784448 26.404363058917 8994.9490412479 207919.94231871
67	287891 13331 235 217739 1.11 40.11 391 -0.74186910516001 0.018794903644508 -25.972401491845 13.89185323166
66	301222 12149 235 217739 1.11 40.11 391 17.476697513907 20.045084744294 7765.5733237958 154307.78739376
68	313371 6750 235 217739 1.11 40.11 391 3 3 1173 3519
80	320121 15604 832 217780 1.213906321605 40.113901361322 390 0.099987214299 0.100000243938 38.999995281267 3.8999990574133
79	335725 15517 1044 217435 1.25491344238 40.054882299226 389 0.099909173954 0.100091242747 38.899982098396 3.8899970598159
78	351242 10604 832 217780 1.213906321605 40.113901361322 390 3 3 1170 3510
77	361846 10527 1044 217435 1.25491344238 40.054882299226 389 3 3 1167 3501
76	372373 558 5105 217039 2 40 39 0 0 0 0
75	372931 793 5105 217039 2 40 39 0.022968 0.02625 1.020468 0.026711904024
74	373724 558 5105 217039 2 40 39 3 3 117 351
95	374282 12619 236 217740 1.11 40.11 391 -1.4821468261069 1.4819889266312 45.072326933113 479.28706126023
94	386901 12653 236 217740 1.11 40.11 391 -1.4529610441212 1.4260514167763 45.857943771685 349.88502296915
93	399554 8314 236 217740 1.11 40.11 391 36.55 36.55 14291.05 522337.8775
92	407868 12185 236 217740 1.11 40.11 391 107.66208724976 1006.401531277 213726.69570859 142339546.3716
91	420053 12181 236 217740 1.11 40.11 391 20.956260070535 26.836806143139 9011.222550171 208778.61210558
89	432234 13399 236 217740 1.11 40.11 391 -0.53923697726609 0.013417885857123 -16.677802628334 6.032615634754
88	445633 12163 236 217740 1.11 40.11 391 18.402430248665 20.024761252948 7788.0287216812 155152.17051789
90	457796 6750 236 217740 1.11 40.11 391 4 4 1564 6256
102	464546 15931 1246 217638 1.303564162878 40.103558990265 389 0.099987233275 0.100000243925 38.899995068937 3.8899990149468
101	480477 15934 1050 217441 1.254913522436 40.054882374025 389 0.099909173915 0.100091242749 38.899982093139 3.8899970587645
100	496411 10956 1246 217638 1.303564162878 40.103558990265 389 4 4 1556 6224
99	507367 10567 1050 217441 1.254913522436 40.054882374025 389 4 4 1556 6224
98	517934 558 5106 217040 2 40 39 0 0 0 0
97	518492 793 5106 217040 2 40 39 0.022969 0.02625 1.020469 0.026711949961
96	519285 558 5106 217040 2 40 39 4 4 156 624
117	519843 13025 237 217741 1.11 40.11 391 -1.48972902345 1.4914431201859 49.871907780951 494.85200873209
116	532868 13042 237 217741 1.11 40.11 391 -1.4478111612181 1.4230961260331 49.62136705204 349.70921226084
115	545910 8705 237 217741 1.11 40.11 391 36.55 36.55 14291.05 522337.8775
114	554615 12564 237 217741 1.11 40.11 391 83.662087249756 983.44921131079 204365.38753986 132348726.29057
113	567179 12576 237 217741 1.11 40.11 391 20.958907156353 27.182399547265 9021.8295856705 209342.19185443
111	579755 13670 237 217741 1.11 40.11 391 -0.36967062213706 0.039397570940498 -11.065614937209 2.6849268532475
110	593425 12564 237 217741 1.11 40.11 391 18.959725682103 20.032942326752 7797.5203094456 155514.16430228
112	605989 7141 237 217741 1.11 40.11 391 5 5 1955 9775
124	613130 15922 1172 217563 1.265750082823 40.065757917399 389 0.099987240401 0.100000243922 38.900008076126 3.8900016162219
123	629052 15938 1056 217447 1.254913602491 40.054882450659 389 0.099909173894 0.100091242743 38.899982089718 3.8899970580803
122	644990 10953 1172 217563 1.265750082823 40.065757917399 389 5 5 1945 9725
121	655943 10961 1056 217447 1.254913602491 40.054882450659 389 5 5 1945 9725
120	666904 597 5107 217041 2 40 39 0 0 0 0
119	667501 832 5107 217041 2 40 39 0.022968 0.02625 1.020468 0.026711904024
118	668333 597 5107 217041 2 40 39 5 5 195 975
139	668930 12987 238 217742 1.11 40.11 391 -1.4807666974456 1.4811502065199 51.844032153385 485.39895627066
138	681917 13027 238 217742 1.11 40.11 391 -1.4505591666033 1.4266257339486 52.128459989374 354.35592812413
137	694944 8705 238 217742 1.11 40.11 391 36.55 36.55 14291.05 522337.8775
136	703649 12562 238 217742 1.11 40.11 391 59.662087249756 960.11206471276 194994.75247213 122789255.58511
135	716211 12566 238 217742 1.11 40.11 391 20.9523387671 27.433879129615 9028.5465440632 209705.42787228
133	728777 13733 238 217742 1.11 40.11 391 -0.25158058805998 0.022264291608543 -7.2131720632378 1.1048336469735
132	742510 12558 238 217742 1.11 40.11 391 19.342176189678 20.011817535154 7806.7694068919 155875.83645898
134	755068 7141 238 217742 1.11 40.11 391 6 6 2346 14076
146	762209 15934 1312 217704 1.305160322989 40.105155144691 389 0.099987090414 0.100000243927 38.899995063252 3.8899990138137
145	778143 15932 1062 217453 1.254913682546 40.054882528554 389 0.09990917388 0.100091242741 38.899982087558 3.8899970576483
144	794075 10955 1312 217704 1.305160322989 40.105155144691 389 6 6 2334 14004
143	805030 10957 1062 217453 1.254913682546 40.054882528554 389 6 6 2334 14004
142	815987 597 5108 217042 2 40 39 0 0 0 0
141	816584 832 5108 217042 2 40 39 0.022969 0.02625 1.020469 0.026711949961
140	817416 597 5108 217042 2 40 39 6 6 234 1404
161	818013 12985 239 217743 1.11 40.11 391 -1.4935373311629 1.4938221907668 54.619132395116 502.73294343266
160	830998 13038 239 217743 1.11 40.11 391 -1.4563373128698 1.4303481443118 53.905535339719 357.32716407599
159	844036 8705 239 217743 1.11 40.11 391 36.55 36.55 14291.05 522337.8775
158	852741 12568 239 217743 1.11 40.11 391 35.662085342407 936.48456924621 185614.18163854 113662513.73809
157	865309 12572 239 217743 1.11 40.11 391 20.949952658851 27.605896970066 9032.3323408921 209915.01267182
155	877881 13949 239 217743 1.11 40.11 391 -0.17270599476483 0.010778970964402 -4.3070814288393 0.47114465465865
154	891830 12563 239 217743 1.11 40.11 391 19.630935823366 20.033598238699 7816.646549535 156267.21104456
156	904393 7141 239 217743 1.11 40.11 391 7 7 2737 19159
168	911534 15921 975 217366 1.254434801937 40.054429842415 389 0.099987181202 0.100000243931 38.899995282028 3.8899990575665
167	927455 15930 1068 217459 1.254913762602 40.054882607401 389 0.099909173873 0.100091242748 38.899982086349 3.8899970574065
166	943385 10946 975 217366 1.254434801937 40.054429842415 389 7 7 2723 19061
165	954331 10950 1068 217459 1.254913762602 40.054882607401 389 7 7 2723 19061
164	965281 597 5109 217043 2 40 39 0 0 0 0
163	965878 832 5109 217043 2 40 39 0.022969 0.02625 1.020469 0.026711949961
162	966710 597 5109 217043 2 40 39 7 7 273 1911
22	967307 12196 233 217880 1.11 40.13 392 0 20.133722845724 7109.9343753054 137805.27839065
23	979503 13149 233 217880 1.11 40.13 392 -4.3179135708601 0.076625315240957 -204.23495314228 637.98799661016
24	992652 6768 233 217880 1.11 40.13 392 1 1 392 392
25	999420 12195 233 217880 1.11 40.13 392 20.929404283559 25.303709926859 8954.3539325494 205189.19181003
26	1011615 12196 233 217880 1.11 40.13 392 179.66208724976 1070.828417742 242765.70670944 175910117.48165
27	1023811 8336 233 217880 1.11 40.13 392 36.55 36.55 14327.6 523673.78
28	1032147 12746 233 217880 1.11 40.13 392 -1.4820302877038 1.4492283739109 23.097714833672 352.50039342405
29	1044893 12012 233 217880 1.11 40.13 392 -1.5112642282752 1.5120701295871 21.964466179984 504.45611517293
30	1056905 558 5103 217037 2 40 39 1 1 39 39
31	1057463 793 5103 217037 2 40 39 0.022969 0.02625 1.020469 0.026711949961
32	1058256 558 5103 217037 2 40 39 0 0 0 0
33	1058814 10570 1032 217423 1.254913282269 40.05488216031 389 1 1 389 389
34	1069384 10570 1032 217423 1.254913282269 40.05488216031 389 1 1 389 389
35	1079954 15555 1032 217423 1.254913282269 40.05488216031 389 0.099909174168 0.100091242722 38.899982119591 3.8899970640549
36	1095509 15555 1032 217423 1.254913282269 40.05488216031 389 0.099909174168 0.100091242722 38.899982119591 3.8899970640549
