version 2
run SinusoidalJammingDetail-653-20170801-18:34:29-8948
attr CACCSpacing 7
attr attackAcc -30
attr attackPos 7
attr attackSpeed 150
attr attackStart 32
attr attacker 1
attr beaconInterval 0.1
attr configname SinusoidalJammingDetail
attr controller 1
attr datetime 20170801-18:34:29
attr experiment SinusoidalJammingDetail
attr fakeAcc "(1 == 4)"
attr fakePos "(1 == 2)"
attr fakeSpeed "(1 == 3)"
attr inifile omnetpp_653.ini
attr iterationvars "$leaderSpeed=150, $controller=1, $CACCSpacing=7, $sController=\"CACC\", $attacker=1, $attackStart=32, $attackSpeed=150, $attackPos=7, $attackAcc=-30, $0=7, $1=0, $nCars=8, $platoonSize=8, $nLanes=1, $beaconInterval=0.1, $priority=2, $packetSize=200, $ploegH=0.5, $leaderHeadway=1.2, $fakeSpeed=(1 == 3), $fakeAcc=(1 == 4), $fakePos=(1 == 2)"
attr iterationvarsf leaderSpeed=150,controller=1,CACCSpacing=7,sController=CACC,attacker=1,attackStart=32,attackSpeed=150,attackPos=7,attackAcc=-30,7,0,nCars=8,platoonSize=8,nLanes=1,beaconInterval=0.1,priority=2,packetSize=200,ploegH=0.5,leaderHeadway=1.2,fakeSpeed=(1_==_3),fakeAcc=(1_==_4),fakePos=(1_==_2)-
attr leaderHeadway 1.2
attr leaderSpeed 150
attr measurement "$leaderSpeed=150, $controller=1, $CACCSpacing=7, $sController=\"CACC\", $attacker=1, $attackStart=32, $attackSpeed=150, $attackPos=7, $attackAcc=-30, $0=7, $1=0, $nCars=8, $platoonSize=8, $nLanes=1, $beaconInterval=0.1, $priority=2, $packetSize=200, $ploegH=0.5, $leaderHeadway=1.2, $fakeSpeed=(1 == 3), $fakeAcc=(1 == 4), $fakePos=(1 == 2)"
attr nCars 8
attr nLanes 1
attr network scenario
attr packetSize 200
attr platoonSize 8
attr ploegH 0.5
attr priority 2
attr processid 8948
attr repetition 3
attr replication #3
attr resultdir results
attr runnumber 653
attr sController "\"CACC\""
attr seedset 3
param **.coreDebug false
param **.debug false
param **.headway 0.1s
param **.numberOfCars 8
param **.numberOfCarsPerPlatoon 8
param **.numberOfLanes 1
param **.numericController 1
param **.traffic.nCars 8
param **.traffic.nLanes 1
param **.traffic.platoonInsertDistance 7m
param **.traffic.platoonInsertHeadway 0s
param **.traffic.platoonInsertSpeed 150kmph
param **.traffic.platoonInsertTime "1 s"
param **.traffic.platoonLeaderHeadway 1.2s
param **.traffic.platoonSize 8
param **.traffic.platooningVType "\"vtypeauto\""
param **.traffic_type "\"PlatoonsTrafficManager\""
param *.**.nic.mac1609_4.bitrate 6Mbps
param *.**.nic.mac1609_4.txPower 100mW
param *.**.nic.mac1609_4.useServiceChannel false
param *.**.nic.phy80211p.analogueModels "xmldoc(\"config.xml\")"
param *.**.nic.phy80211p.decider "xmldoc(\"config.xml\")"
param *.**.nic.phy80211p.maxTXPower 100mW
param *.**.nic.phy80211p.sensitivity -94dBm
param *.**.nic.phy80211p.thermalNoise -95dBm
param *.**.nic.phy80211p.usePropagationDelay true
param *.**.nic.phy80211p.useThermalNoise true
param *.annotations.draw false
param *.connectionManager.alpha 2.0
param *.connectionManager.carrierFrequency "5.890e9 Hz"
param *.connectionManager.pMax 100mW
param *.connectionManager.sat -94dBm
param *.connectionManager.sendDirect true
param *.manager.autoShutdown true
param *.manager.commandLine "\"sumo --remote-port $port --seed $seed --configuration-file $configFile\""
param *.manager.configFile "\"./sumocfg/freeway.sumo.cfg\""
param *.manager.host "\"localhost\""
param *.manager.margin 25
param *.manager.moduleDisplayString "\"\""
param *.manager.moduleName "\"node\""
param *.manager.moduleType "\"Car\""
param *.manager.updateInterval 0.01s
param *.node[*].appl.attackStart 32s
param *.node[*].appl.attackerType 1
param *.node[*].appl.simulationDuration "60 s"
param *.node[*].appl_type "\"SimplePlatooningApp\""
param *.node[*].helper.nCars 8
param *.node[*].helper.nLanes 1
param *.node[*].helper.platoonSize 8
param *.node[*].helper_type "\"PositionHelper\""
param *.node[*].mobility.x 0
param *.node[*].mobility.y 0
param *.node[*].mobility.z 1.895
param *.node[*].prot.attackStart 32s
param *.node[*].prot.attackerType 1
param *.node[*].prot.attackingNode 3
param *.node[*].prot.beaconingInterval 0.1s
param *.node[*].prot.fakeAcc "(1 == 4)"
param *.node[*].prot.fakePos "(1 == 2)"
param *.node[*].prot.fakeSpeed "(1 == 3)"
param *.node[*].prot.maliciousAcc "-30 mpss"
param *.node[*].prot.maliciousSpeed 150kmph
param *.node[*].prot.packetSize 200
param *.node[*].prot.priority 2
param *.node[*].prot.shiftX "7 m"
param *.node[*].prot.useControllerAcceleration true
param *.node[*].protocol_type "\"SimplePlatooningBeaconing\""
param *.node[*].scenario.accHeadway 0.1s
param *.node[*].scenario.caccC1 0.5
param *.node[*].scenario.caccOmegaN "0.2 Hz"
param *.node[*].scenario.caccSpacing 7m
param *.node[*].scenario.caccXi 1
param *.node[*].scenario.controller "\"CACC\""
param *.node[*].scenario.engineTau "0.5 s"
param *.node[*].scenario.leaderHeadway 1.2s
param *.node[*].scenario.leaderOscillationFrequency "0.2 Hz"
param *.node[*].scenario.leaderSpeed 150kmph
param *.node[*].scenario.oscillationAmplitude "10 kmph"
param *.node[*].scenario.ploegH 0.5s
param *.node[*].scenario.ploegKd 0.7
param *.node[*].scenario.ploegKp 0.2
param *.node[*].scenario.startOscillating "5 s"
param *.node[*].scenario.useRealisticEngine false
param *.node[*].scenario_type "\"SinusoidalScenario\""
param *.node[*].unicast.packetLossRate 0
param *.obstacles.debug false
param *.playgroundSizeX 65000m
param *.playgroundSizeY 25000m
param *.playgroundSizeZ 50m
param *.world.use2D false
param *.world.useTorus false

vector 0  scenario.node[0].appl  distance  ETV
vector 1  scenario.node[0].appl  relativeSpeed  ETV
vector 2  scenario.node[0].appl  nodeId  ETV
vector 6  scenario.node[0].appl  acceleration  ETV
vector 7  scenario.node[0].appl  controllerAcceleration  ETV
vector 3  scenario.node[0].appl  speed  ETV
vector 4  scenario.node[0].appl  posx  ETV
vector 5  scenario.node[0].appl  posy  ETV
vector 22  scenario.node[1].appl  distance  ETV
vector 23  scenario.node[1].appl  relativeSpeed  ETV
vector 24  scenario.node[1].appl  nodeId  ETV
vector 28  scenario.node[1].appl  acceleration  ETV
vector 29  scenario.node[1].appl  controllerAcceleration  ETV
vector 25  scenario.node[1].appl  speed  ETV
vector 26  scenario.node[1].appl  posx  ETV
vector 27  scenario.node[1].appl  posy  ETV
vector 44  scenario.node[2].appl  distance  ETV
vector 45  scenario.node[2].appl  relativeSpeed  ETV
vector 46  scenario.node[2].appl  nodeId  ETV
vector 50  scenario.node[2].appl  acceleration  ETV
vector 51  scenario.node[2].appl  controllerAcceleration  ETV
vector 47  scenario.node[2].appl  speed  ETV
vector 48  scenario.node[2].appl  posx  ETV
vector 49  scenario.node[2].appl  posy  ETV
vector 66  scenario.node[3].appl  distance  ETV
vector 67  scenario.node[3].appl  relativeSpeed  ETV
vector 68  scenario.node[3].appl  nodeId  ETV
vector 72  scenario.node[3].appl  acceleration  ETV
vector 73  scenario.node[3].appl  controllerAcceleration  ETV
vector 69  scenario.node[3].appl  speed  ETV
vector 70  scenario.node[3].appl  posx  ETV
vector 71  scenario.node[3].appl  posy  ETV
vector 88  scenario.node[4].appl  distance  ETV
vector 89  scenario.node[4].appl  relativeSpeed  ETV
vector 90  scenario.node[4].appl  nodeId  ETV
vector 94  scenario.node[4].appl  acceleration  ETV
vector 95  scenario.node[4].appl  controllerAcceleration  ETV
vector 91  scenario.node[4].appl  speed  ETV
vector 92  scenario.node[4].appl  posx  ETV
vector 93  scenario.node[4].appl  posy  ETV
vector 110  scenario.node[5].appl  distance  ETV
vector 111  scenario.node[5].appl  relativeSpeed  ETV
vector 112  scenario.node[5].appl  nodeId  ETV
vector 116  scenario.node[5].appl  acceleration  ETV
vector 117  scenario.node[5].appl  controllerAcceleration  ETV
vector 113  scenario.node[5].appl  speed  ETV
vector 114  scenario.node[5].appl  posx  ETV
vector 115  scenario.node[5].appl  posy  ETV
vector 132  scenario.node[6].appl  distance  ETV
vector 133  scenario.node[6].appl  relativeSpeed  ETV
vector 134  scenario.node[6].appl  nodeId  ETV
vector 138  scenario.node[6].appl  acceleration  ETV
vector 139  scenario.node[6].appl  controllerAcceleration  ETV
vector 135  scenario.node[6].appl  speed  ETV
vector 136  scenario.node[6].appl  posx  ETV
vector 137  scenario.node[6].appl  posy  ETV
vector 154  scenario.node[7].appl  distance  ETV
vector 155  scenario.node[7].appl  relativeSpeed  ETV
vector 156  scenario.node[7].appl  nodeId  ETV
vector 160  scenario.node[7].appl  acceleration  ETV
vector 161  scenario.node[7].appl  controllerAcceleration  ETV
vector 157  scenario.node[7].appl  speed  ETV
vector 158  scenario.node[7].appl  posx  ETV
vector 159  scenario.node[7].appl  posy  ETV
vector 35  scenario.node[1].prot  leaderDelay  ETV
vector 33  scenario.node[1].prot  leaderDelayId  ETV
vector 36  scenario.node[1].prot  frontDelay  ETV
vector 34  scenario.node[1].prot  frontDelayId  ETV
vector 57  scenario.node[2].prot  leaderDelay  ETV
vector 55  scenario.node[2].prot  leaderDelayId  ETV
vector 79  scenario.node[3].prot  leaderDelay  ETV
vector 77  scenario.node[3].prot  leaderDelayId  ETV
vector 101  scenario.node[4].prot  leaderDelay  ETV
vector 99  scenario.node[4].prot  leaderDelayId  ETV
vector 123  scenario.node[5].prot  leaderDelay  ETV
vector 121  scenario.node[5].prot  leaderDelayId  ETV
vector 145  scenario.node[6].prot  leaderDelay  ETV
vector 143  scenario.node[6].prot  leaderDelayId  ETV
vector 167  scenario.node[7].prot  leaderDelay  ETV
vector 165  scenario.node[7].prot  leaderDelayId  ETV
vector 168  scenario.node[7].prot  frontDelay  ETV
vector 166  scenario.node[7].prot  frontDelayId  ETV
vector 58  scenario.node[2].prot  frontDelay  ETV
vector 56  scenario.node[2].prot  frontDelayId  ETV
vector 124  scenario.node[5].prot  frontDelay  ETV
vector 122  scenario.node[5].prot  frontDelayId  ETV
vector 80  scenario.node[3].prot  frontDelay  ETV
vector 78  scenario.node[3].prot  frontDelayId  ETV
vector 146  scenario.node[6].prot  frontDelay  ETV
vector 144  scenario.node[6].prot  frontDelayId  ETV
vector 102  scenario.node[4].prot  frontDelay  ETV
vector 100  scenario.node[4].prot  frontDelayId  ETV
vector 8  scenario.node[0].prot  nodeId  ETV
vector 9  scenario.node[0].prot  busyTime  ETV
vector 10  scenario.node[0].prot  collisions  ETV
vector 30  scenario.node[1].prot  nodeId  ETV
vector 31  scenario.node[1].prot  busyTime  ETV
vector 32  scenario.node[1].prot  collisions  ETV
vector 52  scenario.node[2].prot  nodeId  ETV
vector 53  scenario.node[2].prot  busyTime  ETV
vector 54  scenario.node[2].prot  collisions  ETV
vector 74  scenario.node[3].prot  nodeId  ETV
vector 75  scenario.node[3].prot  busyTime  ETV
vector 76  scenario.node[3].prot  collisions  ETV
vector 96  scenario.node[4].prot  nodeId  ETV
vector 97  scenario.node[4].prot  busyTime  ETV
vector 98  scenario.node[4].prot  collisions  ETV
vector 118  scenario.node[5].prot  nodeId  ETV
vector 119  scenario.node[5].prot  busyTime  ETV
vector 120  scenario.node[5].prot  collisions  ETV
vector 140  scenario.node[6].prot  nodeId  ETV
vector 141  scenario.node[6].prot  busyTime  ETV
vector 142  scenario.node[6].prot  collisions  ETV
vector 162  scenario.node[7].prot  nodeId  ETV
vector 163  scenario.node[7].prot  busyTime  ETV
vector 164  scenario.node[7].prot  collisions  ETV
7	232	1.11	-1.264609664986e-06
7	788	1.21	-1.2370558053476e-06
7	1344	1.31	-1.1922643139428e-06
7	1900	1.41	-1.1341353030048e-06
7	2456	1.51	-1.0661075364737e-06
7	3012	1.61	-9.9117950469463e-07
7	3568	1.71	-9.1193474816009e-07
7	4124	1.81	-8.3057002342457e-07
7	4680	1.91	-7.4892560064654e-07
7	5244	2.01	-6.6851609403784e-07
7	5800	2.11	-5.9056183232542e-07
7	6356	2.21	-5.1602003736662e-07
7	6912	2.31	-4.4561458878434e-07
7	7468	2.41	-3.7986517753552e-07
7	8024	2.51	-3.1911461206846e-07
7	8580	2.61	-2.6355444049386e-07
7	9136	2.71	-2.1324864718508e-07
7	9692	2.81	-1.6815555881067e-07
7	10248	2.91	-1.2814749794643e-07
7	10812	3.01	-9.3028553749264e-08
7	11368	3.11	-6.255026363533e-08
7	11924	3.21	-3.6425589655664e-08
7	12480	3.31	-1.4340962195547e-08
7	13036	3.41	4.0332679418498e-09
7	13592	3.51	1.9034231968362e-08
7	14148	3.61	3.0998883460143e-08
7	14704	3.71	4.0258086642098e-08
7	15260	3.81	4.7131671010447e-08
7	15816	3.91	5.1925063360159e-08
7	16380	4.01	5.4926061920924e-08
7	16936	4.11	5.6402775783226e-08
7	17492	4.21	5.6602530662531e-08
7	18048	4.31	5.5751151251116e-08
7	18604	4.41	5.4052726738973e-08
7	19160	4.51	5.1689909241759e-08
7	19716	4.61	4.8824482234977e-08
7	20272	4.71	4.5598198994412e-08
7	20828	4.81	4.2133798672239e-08
7	21384	4.91	3.8536192903393e-08
7	21949	5.01	3.4893794520485e-08
7	22506	5.11	0.34814790229188
7	23063	5.21	0.68726938086839
7	23620	5.31	1.0064706392337
7	24177	5.41	1.2963311769431
7	24734	5.51	1.5
7	25291	5.61	1.5
7	25848	5.71	1.5
7	26405	5.81	1.5
7	26962	5.91	1.5
7	27527	6.01	1.5
7	28084	6.11	1.5
7	28641	6.21	1.5
7	29198	6.31	1.5
7	29755	6.41	1.5
7	30312	6.51	1.4919234166485
7	30869	6.61	1.2264993309071
7	31426	6.71	0.9230538423432
7	31983	6.81	0.58908102202894
7	32540	6.91	0.23235621850268
7	33105	7.01	-0.13919559587845
7	33662	7.11	-0.51762846369643
7	34219	7.21	-0.89509993758214
7	34776	7.31	-1.2639902868434
7	35333	7.41	-1.5
7	35890	7.51	-1.5
7	36447	7.61	-1.5
7	37004	7.71	-1.5
7	37561	7.81	-1.5
7	38118	7.91	-1.5
7	38683	8.01	-1.5
7	39240	8.11	-1.5
7	39797	8.21	-1.5
7	40354	8.31	-1.5
7	40911	8.41	-1.5
7	41468	8.51	-1.5
7	42025	8.61	-1.5
7	42582	8.71	-1.5
7	43139	8.81	-1.5
7	43696	8.91	-1.5
7	44261	9.01	-1.5
7	44818	9.11	-1.5
7	45375	9.21	-1.5
7	45932	9.31	-1.5
7	46489	9.41	-1.5
7	47046	9.51	-1.1784535903605
7	47603	9.61	-0.73985166412807
7	48160	9.71	-0.29046662052636
7	48717	9.81	0.1586820567595
7	49274	9.91	0.59737147696769
7	49839	10.01	1.0162504342412
7	50396	10.11	1.4069035499393
7	50953	10.21	1.5
7	51510	10.31	1.5
7	52067	10.41	1.5
7	52624	10.51	1.5
7	53181	10.61	1.5
7	53738	10.71	1.5
7	54295	10.81	1.5
7	54852	10.91	1.5
7	55417	11.01	1.5
7	55974	11.11	1.5
7	56531	11.21	1.5
7	57088	11.31	1.5
7	57645	11.41	1.5
7	58202	11.51	1.5
7	58759	11.61	1.5
7	59316	11.71	1.5
7	59873	11.81	1.5
7	60430	11.91	1.1420569523654
7	60995	12.01	0.73271074176932
7	61552	12.11	0.30763491705864
7	62109	12.21	-0.12290183397916
7	62666	12.31	-0.54917422862574
7	63223	12.41	-0.96209331714029
7	63780	12.51	-1.3532900275071
7	64337	12.61	-1.5
7	64894	12.71	-1.5
7	65451	12.81	-1.5
7	66008	12.91	-1.5
7	66573	13.01	-1.5
7	67130	13.11	-1.5
7	67687	13.21	-1.5
7	68244	13.31	-1.5
7	68801	13.41	-1.5
7	69358	13.51	-1.5
7	69915	13.61	-1.5
7	70472	13.71	-1.5
7	71029	13.81	-1.5
7	71586	13.91	-1.5
7	72151	14.01	-1.5
7	72708	14.11	-1.5
7	73265	14.21	-1.5
7	73822	14.31	-1.5
7	74379	14.41	-1.3008305793046
7	74936	14.51	-0.88835736019924
7	75493	14.61	-0.45792464373664
7	76050	14.71	-0.020297800469415
7	76607	14.81	0.41435934758473
7	77164	14.91	0.83657487485725
7	77729	15.01	1.2376491839042
7	78286	15.11	1.5
7	78843	15.21	1.5
7	79400	15.31	1.5
7	79957	15.41	1.5
7	80514	15.51	1.5
7	81071	15.61	1.5
7	81628	15.71	1.5
7	82185	15.81	1.5
7	82742	15.91	1.5
7	83307	16.01	1.5
7	83864	16.11	1.5
7	84421	16.21	1.5
7	84978	16.31	1.5
7	85535	16.41	1.5
7	86092	16.51	1.5
7	86649	16.61	1.5
7	87206	16.71	1.5
7	87763	16.81	1.5
7	88320	16.91	1.2451238477419
7	88885	17.01	0.83347870135727
7	89442	17.11	0.40470958877236
7	89999	17.21	-0.030598062215738
7	90556	17.31	-0.46243980386358
7	91113	17.41	-0.88148335304344
7	91670	17.51	-1.2791500631696
7	92227	17.61	-1.5
7	92784	17.71	-1.5
7	93341	17.81	-1.5
7	93898	17.91	-1.5
7	94463	18.01	-1.5
7	95020	18.11	-1.5
7	95577	18.21	-1.5
7	96134	18.31	-1.5
7	96691	18.41	-1.5
7	97248	18.51	-1.5
7	97805	18.61	-1.5
7	98362	18.71	-1.5
7	98919	18.81	-1.5
7	99476	18.91	-1.5
7	100041	19.01	-1.5
7	100598	19.11	-1.5
7	101155	19.21	-1.5
7	101712	19.31	-1.5
7	102269	19.41	-1.2657245815119
7	102826	19.51	-0.85377693481423
7	103383	19.61	-0.42439560038014
7	103940	19.71	0.011767371268903
7	104497	19.81	0.44464851836469
7	105054	19.91	0.86486384400589
7	105619	20.01	1.2637899041132
7	106176	20.11	1.5
7	106733	20.21	1.5
7	107290	20.31	1.5
7	107847	20.41	1.5
7	108404	20.51	1.5
7	108961	20.61	1.5
7	109518	20.71	1.5
7	110075	20.81	1.5
7	110632	20.91	1.5
7	111197	21.01	1.5
7	111754	21.11	1.5
7	112311	21.21	1.5
7	112868	21.31	1.5
7	113425	21.41	1.5
7	113982	21.51	1.5
7	114539	21.61	1.5
7	115096	21.71	1.5
7	115653	21.81	1.5
7	116210	21.91	1.2580915517757
7	116775	22.01	0.84625491634767
7	117332	22.11	0.41709956367446
7	117889	22.21	-0.01874716354331
7	118446	22.31	-0.45124369149482
7	119003	22.41	-0.87102520538662
7	119560	22.51	-1.2694848794604
7	120117	22.61	-1.5
7	120674	22.71	-1.5
7	121231	22.81	-1.5
7	121788	22.91	-1.5
7	122353	23.01	-1.5
7	122910	23.11	-1.5
7	123467	23.21	-1.5
7	124024	23.31	-1.5
7	124581	23.41	-1.5
7	125138	23.51	-1.5
7	125695	23.61	-1.5
7	126252	23.71	-1.5
7	126809	23.81	-1.5
7	127366	23.91	-1.5
7	127931	24.01	-1.5
7	128488	24.11	-1.5
7	129045	24.21	-1.5
7	129602	24.31	-1.5
7	130159	24.41	-1.2609239651136
7	130716	24.51	-0.84904615684721
7	131273	24.61	-0.41980696481297
7	131830	24.71	0.0161570994443
7	132387	24.81	0.44879633965842
7	132944	24.91	0.86873882266714
7	133509	25.01	1.267371555718
7	134066	25.11	1.5
7	134623	25.21	1.5
7	135180	25.31	1.5
7	135737	25.41	1.5
7	136294	25.51	1.5
7	136851	25.61	1.5
7	137408	25.71	1.5
7	137965	25.81	1.5
7	138522	25.91	1.5
7	139087	26.01	1.5
7	139644	26.11	1.5
7	140201	26.21	1.5
7	140758	26.31	1.5
7	141315	26.41	1.5
7	141872	26.51	1.5
7	142429	26.61	1.5
7	142986	26.71	1.5
7	143543	26.81	1.5
7	144100	26.91	1.259872851865
7	144665	27.01	0.84801032251606
7	145222	27.11	0.41880224309333
7	145779	27.21	-0.017118277439927
7	146336	27.31	-0.449704557082
7	146893	27.41	-0.86958730431672
7	147450	27.51	-1.2681558149805
7	148007	27.61	-1.5
7	148564	27.71	-1.5
7	149121	27.81	-1.5
7	149678	27.91	-1.5
7	150243	28.01	-1.5
7	150800	28.11	-1.5
7	151357	28.21	-1.5
7	151914	28.31	-1.5
7	152471	28.41	-1.5
7	153028	28.51	-1.5
7	153585	28.61	-1.5
7	154142	28.71	-1.5
7	154699	28.81	-1.5
7	155256	28.91	-1.5
7	155821	29.01	-1.5
7	156378	29.11	-1.5
7	156935	29.21	-1.5
7	157492	29.31	-1.5
7	158049	29.41	-1.2602629232498
7	158606	29.51	-0.84839472385467
7	159163	29.61	-0.41917509845132
7	159720	29.71	0.016761581288272
7	160277	29.81	0.44936751475921
7	160834	29.91	0.8692724301223
7	161399	30.01	1.2678647739114
7	161956	30.11	1.5
7	162513	30.21	1.5
7	163070	30.31	1.5
7	163627	30.41	1.5
7	164184	30.51	1.5
7	164741	30.61	1.5
7	165298	30.71	1.5
7	165855	30.81	1.5
7	166412	30.91	1.5
7	166977	31.01	1.5
7	167534	31.11	1.5
7	168091	31.21	1.5
7	168648	31.31	1.5
7	169205	31.41	1.5
7	169762	31.51	1.5
7	170319	31.61	1.5
7	170876	31.71	1.5
7	171433	31.81	1.5
7	171990	31.91	1.2601181665227
7	172555	32.01	0.84825207129943
7	173112	32.11	0.41903673064581
7	173669	32.21	-0.016893952361286
7	174226	32.31	-0.44949259223436
7	174783	32.41	-0.86938928093497
7	175340	32.51	-1.2679727801759
7	175897	32.61	-1.5
7	176454	32.71	-1.5
7	177011	32.81	-1.5
7	177568	32.91	-1.5
7	178133	33.01	-1.5
7	178690	33.11	-1.5
7	179247	33.21	-1.5
7	179804	33.31	-1.5
7	180361	33.41	-1.5
7	180918	33.51	-1.5
7	181475	33.61	-1.5
7	182032	33.71	-1.5
7	182589	33.81	-1.5
7	183146	33.91	-1.5
7	183711	34.01	-1.5
7	184268	34.11	-1.5
7	184825	34.21	-1.5
7	185382	34.31	-1.5
7	185939	34.41	-1.2601718862024
7	186496	34.51	-0.8483050101143
7	187053	34.61	-0.41908807937658
7	187610	34.71	0.01684482903692
7	188167	34.81	0.44944617558719
7	188724	34.91	0.86934591722818
7	189289	35.01	1.2679326987088
7	189846	35.11	1.5
7	190403	35.21	1.5
7	190960	35.31	1.5
6	232	1.11	-1.8587371641843e-07
6	788	1.21	-3.7715039979958e-07
6	1344	1.31	-5.2730015909219e-07
6	1900	1.41	-6.4101826069418e-07
6	2456	1.51	-7.2280812446479e-07
6	3012	1.61	-7.7694011224594e-07
6	3568	1.71	-8.0741315855448e-07
6	4124	1.81	-8.1792990158647e-07
6	4680	1.91	-8.1188602507609e-07
6	5244	2.01	-7.9236670558203e-07
6	5800	2.11	-7.6214163868826e-07
6	6356	2.21	-7.2367640768789e-07
6	6912	2.31	-6.7914172063865e-07
6	7468	2.41	-6.3042691067494e-07
6	8024	2.51	-5.791562784907e-07
6	8580	2.61	-5.2670969807878e-07
6	9136	2.71	-4.7423895921384e-07
6	9692	2.81	-4.226883731917e-07
6	10248	2.91	-3.7281679965417e-07
6	10812	3.01	-3.2521825232834e-07
6	11368	3.11	-2.8033753096679e-07
6	11924	3.21	-2.3849224817241e-07
6	12480	3.31	-1.9988561916762e-07
6	13036	3.41	-1.6463133079014e-07
6	13592	3.51	-1.3275709420668e-07
6	14148	3.61	-1.0422880336591e-07
6	14704	3.71	-7.8954798254927e-08
6	15260	3.81	-5.6805049553077e-08
6	15816	3.91	-3.7617553516611e-08
6	16380	4.01	-2.1201884692346e-08
6	16936	4.11	-7.354117315117e-09
6	17492	4.21	4.1374903503311e-09
6	18048	4.31	1.3491074923877e-08
6	18604	4.41	2.0921930854456e-08
6	19160	4.51	2.6641799877325e-08
6	19716	4.61	3.0856028843118e-08
6	20272	4.71	3.3759306461434e-08
6	20828	4.81	3.5534952758098e-08
6	21384	4.91	3.6354919075166e-08
6	21949	5.01	3.6375524814503e-08
6	22506	5.11	0.0068264645847194
6	23063	5.21	0.074594848256737
6	23620	5.31	0.19005135781356
6	24177	5.41	0.34050273679327
6	24734	5.51	0.51301639903159
6	25291	5.61	0.69025459358016
6	25848	5.71	0.8357267325124
6	26405	5.81	0.95506455436478
6	26962	5.91	1.0529631336311
6	27527	6.01	1.1332740666944
6	28084	6.11	1.1991570040927
6	28641	6.21	1.2532039597787
6	29198	6.31	1.2975412879882
6	29755	6.41	1.3339133398063
6	30312	6.51	1.3635927262982
6	30869	6.61	1.370205363024
6	31426	6.71	1.3272611941339
6	31983	6.81	1.237381093641
6	32540	6.91	1.1040433769786
6	33105	7.01	0.9314709214955
6	33662	7.11	0.72451590696545
6	34219	7.21	0.48854318469935
6	34776	7.31	0.22931329740459
6	35333	7.41	-0.044839397355645
6	35890	7.51	-0.30626147357466
6	36447	7.61	-0.52071862935179
6	37004	7.71	-0.69664819248914
6	37561	7.81	-0.84097171050672
6	38118	7.91	-0.95936726314534
6	38683	8.01	-1.0564928534642
6	39240	8.11	-1.1361696663563
6	39797	8.21	-1.2015324043531
6	40354	8.31	-1.255152615343
6	40911	8.41	-1.299139864269
6	41468	8.51	-1.3352247291408
6	42025	8.61	-1.3648268866902
6	42582	8.71	-1.3891109663092
6	43139	8.81	-1.4090323697367
6	43696	8.91	-1.4253748591699
6	44261	9.01	-1.4387813925914
6	44818	9.11	-1.4497794194909
6	45375	9.21	-1.4588016321618
6	45932	9.31	-1.466202988987
6	46489	9.41	-1.4722746794739
6	47046	9.51	-1.469624914661
6	47603	9.61	-1.3967850638842
6	48160	9.71	-1.2587757640922
6	48717	9.81	-1.0660952217464
6	49274	9.91	-0.82923335013376
6	49839	10.01	-0.55852907828324
6	50396	10.11	-0.26404116063858
6	50953	10.21	0.039432698787323
6	51510	10.31	0.30182609759564
6	52067	10.41	0.51708007620732
6	52624	10.51	0.69366331160268
6	53181	10.61	0.83852306854624
6	53738	10.71	0.95735852387477
6	54295	10.81	1.0548449876183
6	54852	10.91	1.1348178424115
6	55417	11.01	1.2004234378772
6	55974	11.11	1.2542428765791
6	56531	11.21	1.2983935616198
6	57088	11.31	1.3346125010308
6	57645	11.41	1.3643246463992
6	58202	11.51	1.3886989543394
6	58759	11.61	1.4086943764177
6	59316	11.71	1.425097586926
6	59873	11.81	1.4385539327783
6	60430	11.91	1.434562737289
6	60995	12.01	1.3623449188863
6	61552	12.11	1.229987565462
6	62109	12.21	1.0461448397947
6	62666	12.31	0.81967864250814
6	63223	12.41	0.55952045906622
6	63780	12.51	0.27454262951352
6	64337	12.61	-0.022341644856283
6	64894	12.71	-0.28780548056062
6	65451	12.81	-0.50557828686024
6	66008	12.91	-0.68422783826705
6	66573	13.01	-0.83078269403671
6	67130	13.11	-0.95100872080636
6	67687	13.21	-1.049635937467
6	68244	13.31	-1.1305446069755
6	68801	13.41	-1.1969178964527
6	69358	13.51	-1.2513671116331
6	69915	13.61	-1.2960344327361
6	70472	13.71	-1.3326771936626
6	71029	13.81	-1.3627370202911
6	71586	13.91	-1.3873965479604
6	72151	14.01	-1.4076259495589
6	72708	14.11	-1.4242211047687
6	73265	14.21	-1.4378349121301
6	73822	14.31	-1.4490029758548
6	74379	14.41	-1.4542593951845
6	74936	14.51	-1.4067454390002
6	75493	14.61	-1.2938574955257
6	76050	14.71	-1.1248409052179
6	76607	14.81	-0.90912582141769
6	77164	14.91	-0.65618298375156
6	77729	15.01	-0.37539052552589
6	78286	15.11	-0.078063005077667
6	78843	15.21	0.20543869668828
6	79400	15.31	0.43800883574505
6	79957	15.41	0.62879735392087
6	80514	15.51	0.78531039044307
6	81071	15.61	0.91370559386164
6	81628	15.71	1.0190343806975
6	82185	15.81	1.1054406719069
6	82742	15.91	1.1763239259999
6	83307	16.01	1.2344728829831
6	83864	16.11	1.2821752809849
6	84421	16.21	1.3213078620858
6	84978	16.31	1.353410208462
6	85535	16.41	1.3797453137336
6	86092	16.51	1.4013492725695
6	86649	16.61	1.4190720434712
6	87206	16.71	1.4336108884486
6	87763	16.81	1.4455378052077
6	88320	16.91	1.4502949065331
6	88885	17.01	1.3935559567543
6	89442	17.11	1.2733368701461
6	89999	17.21	1.0986742440551
6	90556	17.31	0.8787967659174
6	91113	17.41	0.6229832927616
6	91670	17.51	0.34043137853601
6	92227	17.61	0.043031849082098
6	92784	17.71	-0.23417644595227
6	93341	17.81	-0.46158379949475
6	93898	17.91	-0.64813703535265
6	94463	18.01	-0.80117566522517
6	95020	18.11	-0.92672064505592
6	95577	18.21	-1.0297112558185
6	96134	18.31	-1.114199428261
6	96691	18.41	-1.1835091568827
6	97248	18.51	-1.2403672749222
6	97805	18.61	-1.2870107353905
6	98362	18.71	-1.3252746188861
6	98919	18.81	-1.3566643306582
6	99476	18.91	-1.3824148273436
6	100041	19.01	-1.4035392035204
6	100598	19.11	-1.420868549603
6	101155	19.21	-1.4350846492
6	101712	19.31	-1.4467468023348
6	102269	19.41	-1.4517201941764
6	102826	19.51	-1.3984004323881
6	103383	19.61	-1.2808993810083
6	103940	19.71	-1.1083308503771
6	104497	19.81	-0.88999806036725
6	105054	19.91	-0.63525086466711
6	105619	20.01	-0.35335363991251
6	106176	20.11	-0.055983891306255
6	106733	20.21	0.22355126013451
6	107290	20.31	0.45286744637352
6	107847	20.41	0.64098658988883
6	108404	20.51	0.7953098094454
6	108961	20.61	0.92190860023962
6	109518	20.71	1.025763703035
6	110075	20.81	1.110961060045
6	110632	20.91	1.1808525670219
6	111197	21.01	1.2381879459468
6	111754	21.11	1.2852229265718
6	112311	21.21	1.3238079929607
6	112868	21.31	1.3554611865736
6	113425	21.41	1.3814278301389
6	113982	21.51	1.4027295220423
6	114539	21.61	1.4202043287803
6	115096	21.71	1.4345397567773
6	115653	21.81	1.4462998007623
6	116210	21.91	1.4512038299465
6	116775	22.01	1.3966149622043
6	117332	22.11	1.2781048258539
6	117889	22.21	1.104758616826
6	118446	22.31	0.88585193074024
6	119003	22.41	0.63070830476164
6	119560	22.51	0.34856734381066
6	120117	22.61	0.0511856543703
6	120674	22.71	-0.2274874856468
6	121231	22.81	-0.45609652228009
6	121788	22.91	-0.64363555681837
6	122353	23.01	-0.79748288496049
6	122910	23.11	-0.9236912790449
6	123467	23.21	-1.0272261205607
6	124024	23.31	-1.1121607517772
6	124581	23.41	-1.1818367320956
6	125138	23.51	-1.2389953040916
6	125695	23.61	-1.2858852414524
6	126252	23.71	-1.3243513218463
6	126809	23.81	-1.355906905502
6	127366	23.91	-1.3817934749042
6	127931	24.01	-1.403029478103
6	128488	24.11	-1.4204503972238
6	129045	24.21	-1.4347416186069
6	129602	24.31	-1.4464653977718
6	130159	24.41	-1.4513952146871
6	130716	24.51	-1.397277320676
6	131273	24.61	-1.2791416668563
6	131830	24.71	-1.1060840673032
6	132387	24.81	-0.88739036841687
6	132944	24.91	-0.63239387292811
6	133509	25.01	-0.35034337811126
6	134066	25.11	-0.052966136912147
6	134623	25.21	0.22602686982154
6	135180	25.31	0.45489830857193
6	135737	25.41	0.64265260423966
6	136294	25.51	0.7966765214853
6	136851	25.61	0.92302978013734
6	137408	25.71	1.0266834610576
6	137965	25.81	1.1117155819754
6	138522	25.91	1.1814715378058
6	139087	26.01	1.2386957175771
6	139644	26.11	1.2856394761641
6	140201	26.21	1.3241497087101
6	140758	26.31	1.3557415125085
6	141315	26.41	1.3816577950429
6	141872	26.51	1.4029181733591
6	142429	26.61	1.4203590885664
6	142986	26.71	1.4346667137048
6	143543	26.81	1.4464039496623
6	144100	26.91	1.4513241957715
6	144665	27.01	1.3970315218245
6	145222	27.11	1.2787568961947
6	145779	27.21	1.1055921925461
6	146336	27.31	0.8868194531928
6	146893	27.41	0.63176835684402
6	147450	27.51	0.34968428947408
6	148007	27.61	0.052305397196051
6	148564	27.71	-0.22656890652399
6	149121	27.81	-0.45534296745871
6	149678	27.91	-0.64301737940156
6	150243	28.01	-0.79697576417033
6	150800	28.11	-0.92327526336575
6	151357	28.21	-1.0268848428062
6	151914	28.31	-1.1118807851517
6	152471	28.41	-1.1816070619503
6	153028	28.51	-1.2388068945782
6	153585	28.61	-1.2857306800278
6	154142	28.71	-1.3242245276466
6	154699	28.81	-1.3558028900952
6	155256	28.91	-1.3817081460417
6	155821	29.01	-1.4029594787168
6	156378	29.11	-1.4203929733462
6	156935	29.21	-1.4346945110262
6	157492	29.31	-1.446426753148
6	158049	29.41	-1.4513505510308
6	158606	29.51	-1.3971227384744
6	159163	29.61	-1.2788996857282
6	159720	29.71	-1.1057747287524
6	160277	29.81	-0.88703132157306
6	160834	29.91	-0.63200048778214
6	161399	30.01	-0.34992887929945
6	161956	30.11	-0.052550599747292
6	162513	30.21	0.22636775502605
6	163070	30.31	0.45517795316883
6	163627	30.41	0.64288201020943
6	164184	30.51	0.79686471428317
6	164741	30.61	0.92318416377992
6	165298	30.71	1.0268101094155
6	165855	30.81	1.1118194777403
6	166412	30.91	1.181556768519
6	166977	31.01	1.2387656364474
6	167534	31.11	1.2856968339904
6	168091	31.21	1.3241967621056
6	168648	31.31	1.3557801126808
6	169205	31.41	1.3816894606293
6	169762	31.51	1.4029441501705
6	170319	31.61	1.4203803985993
6	170876	31.71	1.434684195354
6	171433	31.81	1.4464182907048
6	171990	31.91	1.4513407705138
6	172555	32.01	1.3970888876891
6	173112	32.11	1.2788466960821
6	173669	32.21	1.1057069889901
6	174226	32.31	0.88695269654835
6	174783	32.41	0.63191434325702
6	175340	32.51	0.3498381112415
6	175897	32.61	0.052459604304289
6	176454	32.71	-0.22644240298533
6	177011	32.81	-0.45523919049515
6	177568	32.91	-0.64293224614715
6	178133	33.01	-0.79690592524955
6	178690	33.11	-0.92321797112547
6	179247	33.21	-1.0268378432137
6	179804	33.31	-1.1118422291148
6	180361	33.41	-1.1815754325717
6	180918	33.51	-1.2387809474724
6	181475	33.61	-1.2857093943644
6	182032	33.71	-1.3242070659885
6	182589	33.81	-1.3557885654535
6	183146	33.91	-1.3816963948479
6	183711	34.01	-1.4029498386442
6	184268	34.11	-1.4203850651299
6	184825	34.21	-1.4346880235344
6	185382	34.31	-1.4464214311445
6	185939	34.41	-1.4513444000933
6	186496	34.51	-1.3971014498217
6	187053	34.61	-1.2788663607076
6	187610	34.71	-1.1057321274301
6	188167	34.81	-0.88698187454312
6	188724	34.91	-0.63194631176131
6	189289	35.01	-0.34987179555372
6	189846	35.11	-0.052493373000573
6	190403	35.21	0.22641470089155
6	190960	35.31	0.45521646513009
5	232	1.11	36.55
5	788	1.21	36.55
5	1344	1.31	36.55
5	1900	1.41	36.55
5	2456	1.51	36.55
5	3012	1.61	36.55
5	3568	1.71	36.55
5	4124	1.81	36.55
5	4680	1.91	36.55
5	5244	2.01	36.55
5	5800	2.11	36.55
5	6356	2.21	36.55
5	6912	2.31	36.55
5	7468	2.41	36.55
5	8024	2.51	36.55
5	8580	2.61	36.55
5	9136	2.71	36.55
5	9692	2.81	36.55
5	10248	2.91	36.55
5	10812	3.01	36.55
5	11368	3.11	36.55
5	11924	3.21	36.55
5	12480	3.31	36.55
5	13036	3.41	36.55
5	13592	3.51	36.55
5	14148	3.61	36.55
5	14704	3.71	36.55
5	15260	3.81	36.55
5	15816	3.91	36.55
5	16380	4.01	36.55
5	16936	4.11	36.55
5	17492	4.21	36.55
5	18048	4.31	36.55
5	18604	4.41	36.55
5	19160	4.51	36.55
5	19716	4.61	36.55
5	20272	4.71	36.55
5	20828	4.81	36.55
5	21384	4.91	36.55
5	21949	5.01	36.55
5	22506	5.11	36.55
5	23063	5.21	36.55
5	23620	5.31	36.55
5	24177	5.41	36.55
5	24734	5.51	36.55
5	25291	5.61	36.55
5	25848	5.71	36.55
5	26405	5.81	36.55
5	26962	5.91	36.55
5	27527	6.01	36.55
5	28084	6.11	36.55
5	28641	6.21	36.55
5	29198	6.31	36.55
5	29755	6.41	36.55
5	30312	6.51	36.55
5	30869	6.61	36.55
5	31426	6.71	36.55
5	31983	6.81	36.55
5	32540	6.91	36.55
5	33105	7.01	36.55
5	33662	7.11	36.55
5	34219	7.21	36.55
5	34776	7.31	36.55
5	35333	7.41	36.55
5	35890	7.51	36.55
5	36447	7.61	36.55
5	37004	7.71	36.55
5	37561	7.81	36.55
5	38118	7.91	36.55
5	38683	8.01	36.55
5	39240	8.11	36.55
5	39797	8.21	36.55
5	40354	8.31	36.55
5	40911	8.41	36.55
5	41468	8.51	36.55
5	42025	8.61	36.55
5	42582	8.71	36.55
5	43139	8.81	36.55
5	43696	8.91	36.55
5	44261	9.01	36.55
5	44818	9.11	36.55
5	45375	9.21	36.55
5	45932	9.31	36.55
5	46489	9.41	36.55
5	47046	9.51	36.55
5	47603	9.61	36.55
5	48160	9.71	36.55
5	48717	9.81	36.55
5	49274	9.91	36.55
5	49839	10.01	36.55
5	50396	10.11	36.55
5	50953	10.21	36.55
5	51510	10.31	36.55
5	52067	10.41	36.55
5	52624	10.51	36.55
5	53181	10.61	36.55
5	53738	10.71	36.55
5	54295	10.81	36.55
5	54852	10.91	36.55
5	55417	11.01	36.55
5	55974	11.11	36.55
5	56531	11.21	36.55
5	57088	11.31	36.55
5	57645	11.41	36.55
5	58202	11.51	36.55
5	58759	11.61	36.55
5	59316	11.71	36.55
5	59873	11.81	36.55
5	60430	11.91	36.55
5	60995	12.01	36.55
5	61552	12.11	36.55
5	62109	12.21	36.55
5	62666	12.31	36.55
5	63223	12.41	36.55
5	63780	12.51	36.55
5	64337	12.61	36.55
5	64894	12.71	36.55
5	65451	12.81	36.55
5	66008	12.91	36.55
5	66573	13.01	36.55
5	67130	13.11	36.55
5	67687	13.21	36.55
5	68244	13.31	36.55
5	68801	13.41	36.55
5	69358	13.51	36.55
5	69915	13.61	36.55
5	70472	13.71	36.55
5	71029	13.81	36.55
5	71586	13.91	36.55
5	72151	14.01	36.55
5	72708	14.11	36.55
5	73265	14.21	36.55
5	73822	14.31	36.55
5	74379	14.41	36.55
5	74936	14.51	36.55
5	75493	14.61	36.55
5	76050	14.71	36.55
5	76607	14.81	36.55
5	77164	14.91	36.55
5	77729	15.01	36.55
5	78286	15.11	36.55
5	78843	15.21	36.55
5	79400	15.31	36.55
5	79957	15.41	36.55
5	80514	15.51	36.55
5	81071	15.61	36.55
5	81628	15.71	36.55
5	82185	15.81	36.55
5	82742	15.91	36.55
5	83307	16.01	36.55
5	83864	16.11	36.55
5	84421	16.21	36.55
5	84978	16.31	36.55
5	85535	16.41	36.55
5	86092	16.51	36.55
5	86649	16.61	36.55
5	87206	16.71	36.55
5	87763	16.81	36.55
5	88320	16.91	36.55
5	88885	17.01	36.55
5	89442	17.11	36.55
5	89999	17.21	36.55
5	90556	17.31	36.55
5	91113	17.41	36.55
5	91670	17.51	36.55
5	92227	17.61	36.55
5	92784	17.71	36.55
5	93341	17.81	36.55
5	93898	17.91	36.55
5	94463	18.01	36.55
5	95020	18.11	36.55
5	95577	18.21	36.55
5	96134	18.31	36.55
5	96691	18.41	36.55
5	97248	18.51	36.55
5	97805	18.61	36.55
5	98362	18.71	36.55
5	98919	18.81	36.55
5	99476	18.91	36.55
5	100041	19.01	36.55
5	100598	19.11	36.55
5	101155	19.21	36.55
5	101712	19.31	36.55
5	102269	19.41	36.55
5	102826	19.51	36.55
5	103383	19.61	36.55
5	103940	19.71	36.55
5	104497	19.81	36.55
5	105054	19.91	36.55
5	105619	20.01	36.55
5	106176	20.11	36.55
5	106733	20.21	36.55
5	107290	20.31	36.55
5	107847	20.41	36.55
5	108404	20.51	36.55
5	108961	20.61	36.55
5	109518	20.71	36.55
5	110075	20.81	36.55
5	110632	20.91	36.55
5	111197	21.01	36.55
5	111754	21.11	36.55
5	112311	21.21	36.55
5	112868	21.31	36.55
5	113425	21.41	36.55
5	113982	21.51	36.55
5	114539	21.61	36.55
5	115096	21.71	36.55
5	115653	21.81	36.55
5	116210	21.91	36.55
5	116775	22.01	36.55
5	117332	22.11	36.55
5	117889	22.21	36.55
5	118446	22.31	36.55
5	119003	22.41	36.55
5	119560	22.51	36.55
5	120117	22.61	36.55
5	120674	22.71	36.55
5	121231	22.81	36.55
5	121788	22.91	36.55
5	122353	23.01	36.55
5	122910	23.11	36.55
5	123467	23.21	36.55
5	124024	23.31	36.55
5	124581	23.41	36.55
5	125138	23.51	36.55
5	125695	23.61	36.55
5	126252	23.71	36.55
5	126809	23.81	36.55
5	127366	23.91	36.55
5	127931	24.01	36.55
5	128488	24.11	36.55
5	129045	24.21	36.55
5	129602	24.31	36.55
5	130159	24.41	36.55
5	130716	24.51	36.55
5	131273	24.61	36.55
5	131830	24.71	36.55
5	132387	24.81	36.55
5	132944	24.91	36.55
5	133509	25.01	36.55
5	134066	25.11	36.55
5	134623	25.21	36.55
5	135180	25.31	36.55
5	135737	25.41	36.55
5	136294	25.51	36.55
5	136851	25.61	36.55
5	137408	25.71	36.55
5	137965	25.81	36.55
5	138522	25.91	36.55
5	139087	26.01	36.55
5	139644	26.11	36.55
5	140201	26.21	36.55
5	140758	26.31	36.55
5	141315	26.41	36.55
5	141872	26.51	36.55
5	142429	26.61	36.55
5	142986	26.71	36.55
5	143543	26.81	36.55
5	144100	26.91	36.55
5	144665	27.01	36.55
5	145222	27.11	36.55
5	145779	27.21	36.55
5	146336	27.31	36.55
5	146893	27.41	36.55
5	147450	27.51	36.55
5	148007	27.61	36.55
5	148564	27.71	36.55
5	149121	27.81	36.55
5	149678	27.91	36.55
5	150243	28.01	36.55
5	150800	28.11	36.55
5	151357	28.21	36.55
5	151914	28.31	36.55
5	152471	28.41	36.55
5	153028	28.51	36.55
5	153585	28.61	36.55
5	154142	28.71	36.55
5	154699	28.81	36.55
5	155256	28.91	36.55
5	155821	29.01	36.55
5	156378	29.11	36.55
5	156935	29.21	36.55
5	157492	29.31	36.55
5	158049	29.41	36.55
5	158606	29.51	36.55
5	159163	29.61	36.55
5	159720	29.71	36.55
5	160277	29.81	36.55
5	160834	29.91	36.55
5	161399	30.01	36.55
5	161956	30.11	36.55
5	162513	30.21	36.55
5	163070	30.31	36.55
5	163627	30.41	36.55
5	164184	30.51	36.55
5	164741	30.61	36.55
5	165298	30.71	36.55
5	165855	30.81	36.55
5	166412	30.91	36.55
5	166977	31.01	36.55
5	167534	31.11	36.55
5	168091	31.21	36.55
5	168648	31.31	36.55
5	169205	31.41	36.55
5	169762	31.51	36.55
5	170319	31.61	36.55
5	170876	31.71	36.55
5	171433	31.81	36.55
5	171990	31.91	36.55
5	172555	32.01	36.55
5	173112	32.11	36.55
5	173669	32.21	36.55
5	174226	32.31	36.55
5	174783	32.41	36.55
5	175340	32.51	36.55
5	175897	32.61	36.55
5	176454	32.71	36.55
5	177011	32.81	36.55
5	177568	32.91	36.55
5	178133	33.01	36.55
5	178690	33.11	36.55
5	179247	33.21	36.55
5	179804	33.31	36.55
5	180361	33.41	36.55
5	180918	33.51	36.55
5	181475	33.61	36.55
5	182032	33.71	36.55
5	182589	33.81	36.55
5	183146	33.91	36.55
5	183711	34.01	36.55
5	184268	34.11	36.55
5	184825	34.21	36.55
5	185382	34.31	36.55
5	185939	34.41	36.55
5	186496	34.51	36.55
5	187053	34.61	36.55
5	187610	34.71	36.55
5	188167	34.81	36.55
5	188724	34.91	36.55
5	189289	35.01	36.55
5	189846	35.11	36.55
5	190403	35.21	36.55
5	190960	35.31	36.55
4	232	1.11	120.51262168844
4	788	1.21	124.67928847963
4	1344	1.31	128.84595526673
4	1900	1.41	133.01262204834
4	2456	1.51	137.17928882337
4	3012	1.61	141.34595559106
4	3568	1.71	145.51262235092
4	4124	1.81	149.67928910269
4	4680	1.91	153.84595584629
4	5244	2.01	158.0126225818
4	5800	2.11	162.17928930946
4	6356	2.21	166.34595602956
4	6912	2.31	170.51262274253
4	7468	2.41	174.67928944879
4	8024	2.51	178.84595614886
4	8580	2.61	183.01262284324
4	9136	2.71	187.17928953245
4	9692	2.81	191.34595621703
4	10248	2.91	195.51262289748
4	10812	3.01	199.6792895743
4	11368	3.11	203.84595624795
4	11924	3.21	208.01262291889
4	12480	3.31	212.17928958752
4	13036	3.41	216.34595625422
4	13592	3.51	220.51262291934
4	14148	3.61	224.67928958318
4	14704	3.71	228.84595624604
4	15260	3.81	233.01262290815
4	15816	3.91	237.17928956973
4	16380	4.01	241.34595623097
4	16936	4.11	245.51262289203
4	17492	4.21	249.67928955303
4	18048	4.31	253.84595621409
4	18604	4.41	258.01262287531
4	19160	4.51	262.17928953674
4	19716	4.61	266.34595619845
4	20272	4.71	270.51262286048
4	20828	4.81	274.67928952284
4	21384	4.91	278.84595618557
4	21949	5.01	283.01262284865
4	22506	5.11	287.17929087739
4	23063	5.21	291.34618540818
4	23620	5.31	295.51408003271
4	24177	5.41	299.68419937858
4	24734	5.51	303.85809342952
4	25291	5.61	308.0374970479
4	25848	5.71	312.2240957182
4	26405	5.81	316.41929148082
4	26962	5.91	320.624234629
4	27527	6.01	324.83986880387
4	28084	6.11	329.06696811979
4	28641	6.21	333.3061676202
4	29198	6.31	337.55798826187
4	29755	6.41	341.82285741083
4	30312	6.51	346.10112562439
4	30869	6.61	350.39305065245
4	31426	6.71	354.69858606207
4	31983	6.81	359.01720533671
4	32540	6.91	363.34791970004
4	33105	7.01	367.68931443926
4	33662	7.11	372.03959243985
4	34219	7.21	376.39662377588
4	34776	7.31	380.75800018799
4	35333	7.41	385.12109373922
4	35890	7.51	389.48319150231
4	36447	7.61	393.84179567092
4	37004	7.71	398.19483909973
4	37561	7.81	402.54062600959
4	38118	7.91	406.87776527096
4	38683	8.01	411.20511567311
4	39240	8.11	415.52174102572
4	39797	8.21	419.82687332669
4	40354	8.31	424.11988254677
4	40911	8.41	428.40025184256
4	41468	8.51	432.66755722244
4	42025	8.61	436.92145086561
4	42582	8.71	441.16164743788
4	43139	8.81	445.38791286581
4	43696	8.91	449.60005512767
4	44261	9.01	453.79791669876
4	44818	9.11	457.98136835394
4	45375	9.21	462.15030408361
4	45932	9.31	466.30463692296
4	46489	9.41	470.44429553056
4	47046	9.51	474.56922364441
4	47603	9.61	478.67961656487
4	48160	9.71	482.77633561328
4	48717	9.81	486.86087255202
4	49274	9.91	490.93524449415
4	49839	10.01	495.00188927917
4	50396	10.11	499.06356262393
4	50953	10.21	503.12323728767
4	51510	10.31	507.18384148431
4	52067	10.41	511.24789652301
4	52624	10.51	515.31747722962
4	53181	10.61	519.39428568401
4	53738	10.71	523.4797181845
4	54295	10.81	527.57492018205
4	54852	10.91	531.68083134541
4	55417	11.01	535.79822253024
4	55974	11.11	539.92772610666
4	56531	11.21	544.06986083843
4	57088	11.31	548.22505229252
4	57645	11.41	552.39364958208
4	58202	11.51	556.57593910146
4	58759	11.61	560.7721557938
4	59316	11.71	564.98249239432
4	59873	11.81	569.20710701299
4	60430	11.91	573.44611455567
4	60995	12.01	577.69930999261
4	61552	12.11	581.96584800782
4	62109	12.21	586.24429949997
4	62666	12.31	590.53273857844
4	63223	12.41	594.82883135447
4	63780	12.51	599.12992516447
4	64337	12.61	603.43313780023
4	64894	12.71	607.73558051264
4	65451	12.81	612.03470752725
4	66008	12.91	616.32841973931
4	66573	13.01	620.6149951518
4	67130	13.11	624.89302112739
4	67687	13.21	629.16133881146
4	68244	13.31	633.41899753959
4	68801	13.41	637.66521743582
4	69358	13.51	641.89935873025
4	69915	13.61	646.12089658873
4	70472	13.71	650.32940046446
4	71029	13.81	654.52451715909
4	71586	13.91	658.70595692696
4	72151	14.01	662.87348207572
4	72708	14.11	667.02689761485
4	73265	14.21	671.1660435842
4	73822	14.31	675.29078876074
4	74379	14.41	679.40102627694
4	74936	14.51	683.49682267063
4	75493	14.61	687.57879324787
4	76050	14.71	691.64818174324
4	76607	14.81	695.7067739741
4	77164	14.91	699.75680342466
4	77729	15.01	703.80085669701
4	78286	15.11	707.84177970951
4	78843	15.21	711.88251533594
4	79400	15.31	715.9257727295
4	79957	15.41	719.97379362594
4	80514	15.51	724.02841702938
4	81071	15.61	728.09115156371
4	81628	15.71	732.16323482598
4	82185	15.81	736.24568207681
4	82742	15.91	740.33932618356
4	83307	16.01	744.44485038751
4	83864	16.11	748.56281518451
4	84421	16.21	752.69368037637
4	84978	16.31	756.83782316073
4	85535	16.41	760.99555297101
4	86092	16.51	765.16712365042
4	86649	16.61	769.35274343878
4	87206	16.71	773.55258316529
4	87763	16.81	777.76678296939
4	88320	16.91	781.99545679975
4	88885	17.01	786.23850815239
4	89442	17.11	790.49523865706
4	89999	17.21	794.7643346525
4	90556	17.31	799.04395684188
4	91113	17.41	803.33183271316
4	91670	17.51	807.62534919175
4	92227	17.61	811.92164481027
4	92784	17.71	816.21779392361
4	93341	17.81	820.51114426762
4	93898	17.91	824.79950387046
4	94463	18.01	829.08107455177
4	95020	18.11	833.35438117734
4	95577	18.21	837.61821362333
4	96134	18.31	841.87157916671
4	96691	18.41	846.11366342882
4	97248	18.51	850.34379833553
4	97805	18.61	854.56143583334
4	98362	18.71	858.76612632751
4	98919	18.81	862.95750099376
4	99476	18.91	867.1352572677
4	100041	19.01	871.29914694116
4	100598	19.11	875.448966397
4	101155	19.21	879.58454859822
4	101712	19.31	883.70575651633
4	102269	19.41	887.81247865895
4	102826	19.51	891.90480019199
4	103383	19.61	895.98338865242
4	103940	19.71	900.04953177443
4	104497	19.81	904.10504901773
4	105054	19.91	908.15219840896
4	105619	20.01	912.19358318737
4	106176	20.11	916.23205903121
4	106733	20.21	920.27055793245
4	107290	20.31	924.31175318721
4	107847	20.41	928.35785516651
4	108404	20.51	932.41067714443
4	108961	20.61	936.47170663731
4	109518	20.71	940.54216392663
4	110075	20.81	944.62305006823
4	110632	20.91	948.71518627657
4	111197	21.01	952.81924623354
4	111754	21.11	956.93578259293
4	112311	21.21	961.06524872333
4	112868	21.31	965.2080165449
4	113425	21.41	969.3643911617
4	113982	21.51	973.53462286535
4	114539	21.61	977.71891698214
4	115096	21.71	981.91744195113
4	115653	21.81	986.13033595104
4	116210	21.91	990.35771138788
4	116775	22.01	994.59947896943
4	117332	22.11	998.85495973597
4	117889	22.21	1003.1228563273
4	118446	22.31	1007.4013419163
4	119003	22.41	1011.6881530941
4	119560	22.51	1015.980682964
4	120117	22.61	1020.2760736917
4	120674	22.71	1024.5713956297
4	121231	22.81	1028.863983273
4	121788	22.91	1033.1516330669
4	122353	23.01	1037.4325373288
4	122910	23.11	1041.7052131296
4	123467	23.21	1045.9684439508
4	124024	23.31	1050.2212318234
4	124581	23.41	1054.4627580656
4	125138	23.51	1058.6923510728
4	125695	23.61	1062.9094598954
4	126252	23.71	1067.1136325631
4	126809	23.81	1071.3044983024
4	127366	23.91	1075.4817529502
4	127931	24.01	1079.6451469868
4	128488	24.11	1083.7944757189
4	129045	24.21	1087.929571227
4	129602	24.31	1092.0502957584
4	130159	24.41	1096.1565372456
4	130716	24.51	1100.2483834492
4	131273	24.61	1104.3265090898
4	131830	24.71	1108.3922079552
4	132387	24.81	1112.4473041384
4	132944	24.91	1116.4940590508
4	133509	25.01	1120.5350782316
4	134066	25.11	1124.573218715
4	134623	25.21	1128.6114110181
4	135180	25.31	1132.6523235371
4	135737	25.41	1136.698162356
4	136294	25.51	1140.7507372322
4	136851	25.61	1144.8115327971
4	137408	25.71	1148.8817669654
4	137965	25.81	1152.9624388515
4	138522	25.91	1157.0543680772
4	139087	26.01	1161.1582270177
4	139644	26.11	1165.274567255
4	140201	26.21	1169.4038412785
4	140758	26.31	1173.5464202869
4	141315	26.41	1177.7026087926
4	141872	26.51	1181.8726566018
4	142429	26.61	1186.0567686425
4	142986	26.71	1190.2551130271
4	143543	26.81	1194.4678276664
4	144100	26.91	1198.6950247535
4	144665	27.01	1202.9366159594
4	145222	27.11	1207.1919249904
4	145779	27.21	1211.4596567328
4	146336	27.31	1215.7379860791
4	146893	27.41	1220.0246508766
4	147450	27.51	1224.3170450823
4	148007	27.61	1228.6123113652
4	148564	27.71	1232.9075195307
4	149121	27.81	1237.2000022557
4	149678	27.91	1241.4875543947
4	150243	28.01	1245.7683669604
4	150800	28.11	1250.0409559531
4	151357	28.21	1254.304103976
4	151914	28.31	1258.5568123401
4	152471	28.41	1262.7982617722
4	153028	28.51	1267.0277801832
4	153585	28.61	1271.2448162257
4	154142	28.71	1275.448917603
4	154699	28.81	1279.6397132741
4	155256	28.91	1283.8168988563
4	155821	29.01	1287.9802246498
4	156378	29.11	1292.1294858135
4	156935	29.21	1296.2645143068
4	157492	29.31	1300.3851722774
4	158049	29.41	1304.4913475789
4	158606	29.51	1308.5831283293
4	159163	29.61	1312.6611902386
4	159720	29.71	1316.7268279283
4	160277	29.81	1320.7818661297
4	160834	29.91	1324.8285667201
4	161399	30.01	1328.8695355557
4	161956	30.11	1332.9076298574
4	162513	30.21	1336.9457799393
4	163070	30.31	1340.9866535229
4	163627	30.41	1345.0324561019
4	164184	30.51	1349.0849969494
4	164741	30.61	1353.1457602995
4	165298	30.71	1357.2159637412
4	165855	30.81	1361.2966061215
4	166412	30.91	1365.3885068427
4	166977	31.01	1369.4923381004
4	167534	31.11	1373.6086513288
4	168091	31.21	1377.7378988962
4	168648	31.31	1381.8804519021
4	169205	31.41	1386.0366147773
4	169762	31.51	1390.2066372613
4	170319	31.61	1394.3907242272
4	170876	31.71	1398.5890437424
4	171433	31.81	1402.8017336808
4	171990	31.91	1407.0289062061
4	172555	32.01	1411.2704731222
4	173112	32.11	1415.5257585023
4	173669	32.21	1419.7934675422
4	174226	32.31	1424.0717753713
4	174783	32.41	1428.3584200097
4	175340	32.51	1432.6507955322
4	175897	32.61	1436.9460446768
4	176454	32.71	1441.241237174
4	177011	32.81	1445.5337054499
4	177568	32.91	1449.8212441402
4	178133	33.01	1454.1020440777
4	178690	33.11	1458.3746211154
4	179247	33.21	1462.6377577356
4	179804	33.31	1466.89045515
4	180361	33.41	1471.131894004
4	180918	33.51	1475.3614021418
4	181475	33.61	1479.5784281612
4	182032	33.71	1483.7825197205
4	182589	33.81	1487.9733057421
4	183146	33.91	1492.1504818127
4	183711	34.01	1496.3137982079
4	184268	34.11	1500.4630500663
4	184825	34.21	1504.5980693304
4	185382	34.31	1508.7187181345
4	185939	34.41	1512.824884321
4	186496	34.51	1516.9166560574
4	187053	34.61	1520.9947091897
4	187610	34.71	1525.0603384546
4	188167	34.81	1529.1153686708
4	188724	34.91	1533.1620617801
4	189289	35.01	1537.2030236823
4	189846	35.11	1541.2411116239
4	190403	35.21	1545.2792558913
4	190960	35.31	1549.3201241127
3	232	1.11	41.666667929418
3	788	1.21	41.666667899951
3	1344	1.31	41.666667853658
3	1900	1.41	41.666667794392
3	2456	1.51	41.666667725546
3	3012	1.61	41.666667650077
3	3568	1.71	41.666667570527
3	4124	1.81	41.666667489057
3	4680	1.91	41.666667407473
3	5244	2.01	41.666667327259
3	5800	2.11	41.666667249607
3	6356	2.21	41.66666717545
3	6912	2.31	41.66666710549
3	7468	2.41	41.666667040228
3	8024	2.51	41.66666697999
3	8580	2.61	41.666666924954
3	9136	2.71	41.666666875173
3	9692	2.81	41.666666830595
3	10248	2.91	41.666666791086
3	10812	3.01	41.666666756443
3	11368	3.11	41.666666726414
3	11924	3.21	41.666666700707
3	12480	3.31	41.666666679009
3	13036	3.41	41.666666660987
3	13592	3.51	41.666666646305
3	14148	3.61	41.666666634625
3	14704	3.71	41.666666625619
3	15260	3.81	41.666666618967
3	15816	3.91	41.666666614365
3	16380	4.01	41.666666611529
3	16936	4.11	41.66666661019
3	17492	4.21	41.666666610106
3	18048	4.31	41.66666661105
3	18604	4.41	41.666666612823
3	19160	4.51	41.666666615243
3	19716	4.61	41.666666618151
3	20272	4.71	41.666666621406
3	20828	4.81	41.666666624888
3	21384	4.91	41.666666628494
3	21949	5.01	41.666666632137
3	22506	5.11	41.666734900033
3	23063	5.21	41.670948476405
3	23620	5.31	41.684664742913
3	24177	5.41	41.711945167374
3	24734	5.51	41.755610823567
3	25291	5.61	41.816952665848
3	25848	5.71	41.894216596382
3	26405	5.81	41.984547685456
3	26962	5.91	42.085598395823
3	27527	6.01	42.195442929292
3	28084	6.11	42.312501460593
3	28641	6.21	42.43547798275
3	29198	6.31	42.563309318645
3	29755	6.41	42.695123292736
3	30312	6.51	42.830202833657
3	30869	6.61	42.967277868462
3	31426	6.71	43.102240784882
3	31983	6.81	43.23027401884
3	32540	6.91	43.346870620625
3	33105	7.01	43.447913783684
3	33662	7.11	43.529744939715
3	34219	7.21	43.589220237998
3	34776	7.31	43.623755328609
3	35333	7.41	43.631381416411
3	35890	7.51	43.612092454521
3	36447	7.61	43.56932103241
3	37004	7.71	43.507285813978
3	37561	7.81	43.429447572987
3	38118	7.91	43.338645349306
3	38683	8.01	43.237208144466
3	39240	8.11	43.127046550912
3	39797	8.21	43.00972791991
3	40354	8.31	42.886538025405
3	40911	8.41	42.758531649867
3	41468	8.51	42.626574082303
3	42025	8.61	42.491375161077
3	42582	8.71	42.353517200886
3	43139	8.81	42.2134779026
3	43696	8.91	42.071649147316
3	44261	9.01	41.928352414027
3	44818	9.11	41.783851427477
3	45375	9.21	41.638362533812
3	45932	9.31	41.492063212224
3	46489	9.41	41.345099057468
3	47046	9.51	41.197687195957
3	47603	9.61	41.054345829873
3	48160	9.71	40.92197732765
3	48717	9.81	40.806518415565
3	49274	9.91	40.712854985186
3	49839	10.01	40.644830941643
3	50396	10.11	40.605270576133
3	50953	10.21	40.595961789979
3	51510	10.31	40.614765090574
3	52067	10.41	40.657138101268
3	52624	10.51	40.71884648357
3	53181	10.61	40.796416605098
3	53738	10.71	40.886998877433
3	54295	10.81	40.988255645561
3	54852	10.91	41.098269218164
3	55417	11.01	41.215466420431
3	55974	11.11	41.33855670108
3	56531	11.21	41.46648135856
3	57088	11.31	41.598371888854
3	57645	11.41	41.733515816169
3	58202	11.51	41.8713286622
3	58759	11.61	42.01133095116
3	59316	11.71	42.153129345907
3	59873	11.81	42.296401172981
3	60430	11.91	42.440475080365
3	60995	12.01	42.58031618601
3	61552	12.11	42.709536275545
3	62109	12.21	42.822598150946
3	62666	12.31	42.914842923842
3	63223	12.41	42.98250305941
3	63780	12.51	43.022702120469
3	64337	12.61	43.033484343958
3	64894	12.71	43.016216261811
3	65451	12.81	42.975102664961
3	66008	12.91	42.914427440664
3	66573	13.01	42.837704868549
3	67130	13.11	42.747817881934
3	67687	13.21	42.647131490264
3	68244	13.31	42.537585825019
3	68801	13.41	42.420772469757
3	69358	13.51	42.297997077347
3	69915	13.61	42.170330737898
3	70472	13.71	42.038652118361
3	71029	13.81	41.903682031675
3	71586	13.91	41.766011795509
3	72151	14.01	41.626126496309
3	72708	14.11	41.484424073913
3	73265	14.21	41.341230977594
3	73822	14.31	41.196815009456
3	74379	14.41	41.051434913329
3	74936	14.51	40.908219760552
3	75493	14.61	40.773448085166
3	76050	14.71	40.653147856182
3	76607	14.81	40.552410818743
3	77164	14.91	40.47538209096
3	77729	15.01	40.425263577507
3	78286	15.11	40.404308597451
3	78843	15.21	40.412557746568
3	79400	15.31	40.44627267704
3	79957	15.41	40.500878417952
3	80514	15.51	40.572621899691
3	81071	15.61	40.658424297982
3	81628	15.71	40.755759904564
3	82185	15.81	40.862556758959
3	82742	15.91	40.977115131913
3	83307	16.01	41.098040653421
3	83864	16.11	41.224189454421
3	84421	16.21	41.354623163871
3	84978	16.31	41.488571990683
3	85535	16.41	41.625404438048
3	86092	16.51	41.76460245863
3	86649	16.61	41.905741073179
3	87206	16.71	42.04847165069
3	87763	16.81	42.19250819231
3	88320	16.91	42.337565506681
3	88885	17.01	42.4798603368
3	89442	17.11	42.612895096878
3	89999	17.21	42.730819673225
3	90556	17.31	42.828699680314
3	91113	17.41	42.90252772365
3	91670	17.51	42.949221043622
3	92227	17.61	42.966635531731
3	92784	17.71	42.955239679248
3	93341	17.81	42.91894335602
3	93898	17.91	42.862219973949
3	94463	18.01	42.788739288885
3	95020	18.11	42.7015117788
3	95577	18.21	42.603007084181
3	96134	18.31	42.495251170402
3	96691	18.41	42.379906034713
3	97248	18.51	42.258335093733
3	97805	18.61	42.131656823968
3	98362	18.71	42.000788765715
3	98919	18.81	41.866483621601
3	99476	18.91	41.729358869944
3	100041	19.01	41.589921058033
3	100598	19.11	41.448585731074
3	101155	19.21	41.305693780873
3	101712	19.31	41.161524857441
3	102269	19.41	41.016354307546
3	102826	19.51	40.873722785233
3	103383	19.61	40.740048622954
3	103940	19.71	40.621247784992
3	104497	19.81	40.522312925574
3	105054	19.91	40.447302443002
3	105619	20.01	40.399343226154
3	106176	20.11	40.380619836989
3	106733	20.21	40.390852261269
3	107290	20.31	40.42619416815
3	107847	20.41	40.482134596392
3	108404	20.51	40.554972986614
3	108961	20.61	40.641673591217
3	109518	20.71	40.73974603982
3	110075	20.81	40.847147361314
3	110632	20.91	40.962201607825
3	111197	21.01	41.083533918363
3	111754	21.11	41.210016428051
3	112311	21.21	41.340723894856
3	112868	21.31	41.47489729805
3	113425	21.41	41.611913976267
3	113982	21.51	41.751263130315
3	114539	21.61	41.892525726947
3	115096	21.71	42.035358012948
3	115653	21.81	42.179477990955
3	116210	21.91	42.324606891881
3	116775	22.01	42.467114711865
3	117332	22.11	42.600552801533
3	117889	22.21	42.71902961828
3	118446	22.31	42.817574119593
3	119003	22.41	42.892146826113
3	119560	22.51	42.939637219565
3	120117	22.61	42.957875746063
3	120674	22.71	42.947212316072
3	121231	22.81	42.911516834389
3	121788	22.91	42.855286351658
3	122353	23.01	42.78221001573
3	122910	23.11	42.695314212772
3	123467	23.21	42.59708163353
3	124024	23.31	42.489548949138
3	124581	23.41	42.374386939297
3	125138	23.51	42.252966225295
3	125695	23.61	42.126411193975
3	126252	23.71	41.995644234173
3	126809	23.81	41.861422026
3	127366	23.91	41.724365310702
3	127931	24.01	41.584983312302
3	128488	24.11	41.443693771862
3	129045	24.21	41.300839382553
3	129602	24.31	41.156701272136
3	130159	24.41	41.011556940943
3	130716	24.51	40.869003238384
3	131273	24.61	40.735477564529
3	131830	24.71	40.616880524647
3	132387	24.81	40.518191181199
3	132944	24.91	40.443456034258
3	133509	25.01	40.395791677168
3	134066	25.11	40.377373233275
3	134623	25.21	40.387876729909
3	135180	25.31	40.423441010534
3	135737	25.41	40.479563862699
3	136294	25.51	40.552551904076
3	136851	25.61	40.63937527475
3	137408	25.71	40.73754843429
3	137965	25.81	40.845032373831
3	138522	25.91	40.960154395916
3	139087	26.01	41.08154230603
3	139644	26.11	41.208070426737
3	140201	26.21	41.338815310463
3	140758	26.31	41.473019408564
3	141315	26.41	41.610061267297
3	141872	26.51	41.749431078138
3	142429	26.61	41.890710620534
3	142986	26.71	42.033556807965
3	143543	26.81	42.177688189986
3	144100	26.91	42.32282679545
3	144665	27.01	42.465363471292
3	145222	27.11	42.598856642818
3	145779	27.21	42.717409067934
3	146336	27.31	42.816044660405
3	146893	27.41	42.890719525564
3	147450	27.51	42.938319324542
3	148007	27.61	42.956671000835
3	148564	27.71	42.946108152695
3	149121	27.81	42.910495183162
3	149678	27.91	42.854332389134
3	150243	28.01	42.781311581518
3	150800	28.11	42.694461331116
3	151357	28.21	42.596266120836
3	151914	28.31	42.488764092008
3	152471	28.41	42.373627230407
3	153028	28.51	42.252227146722
3	153585	28.61	42.125689039447
3	154142	28.71	41.994935963255
3	154699	28.81	41.86072514448
3	155256	28.91	41.723677772453
3	155821	29.01	41.584303438791
3	156378	29.11	41.443020186105
3	156935	29.21	41.300170954946
3	157492	29.31	41.156037076006
3	158049	29.41	41.010896345715
3	158606	29.51	40.868353351213
3	159163	29.61	40.734848117978
3	159720	29.71	40.616279136189
3	160277	29.81	40.517623596567
3	160834	29.91	40.442926360655
3	161399	30.01	40.395302603962
3	161956	30.11	40.376926150007
3	162513	30.21	40.387466972619
3	163070	30.31	40.423061873548
3	163627	30.41	40.479209845027
3	164184	30.51	40.55221849299
3	164741	30.61	40.639058768242
3	165298	30.71	40.737245795424
3	165855	30.81	40.844741111261
3	166412	30.91	40.959872465872
3	166977	31.01	41.081268031907
3	167534	31.11	41.207802433136
3	168091	31.21	41.338552469078
3	168648	31.31	41.47276079379
3	169205	31.41	41.609806119816
3	169762	31.51	41.749178775045
3	170319	31.61	41.890460650831
3	170876	31.71	42.033308752454
3	171433	31.81	42.177441704779
3	171990	31.91	42.32258164654
3	172555	32.01	42.465122296168
3	173112	32.11	42.598623053264
3	173669	32.21	42.71718589082
3	174226	32.31	42.815834027991
3	174783	32.41	42.890522962046
3	175340	32.51	42.938137827955
3	175897	32.61	42.956505086842
3	176454	32.71	42.945956090486
3	177011	32.81	42.910354484241
3	177568	32.91	42.854201012067
3	178133	33.01	42.781187851618
3	178690	33.11	42.694343874556
3	179247	33.21	42.5961538106
3	179804	33.31	42.488656003551
3	180361	33.41	42.373522605279
3	180918	33.51	42.252125362729
3	181475	33.61	42.125589586175
3	182032	33.71	41.994838421986
3	182589	33.81	41.860629171719
3	183146	33.91	41.723583086416
3	183711	34.01	41.584209808314
3	184268	34.11	41.442927421557
3	184825	34.21	41.300078900759
3	185382	34.31	41.155945604564
3	185939	34.41	41.010805370177
3	186496	34.51	40.868263850359
3	187053	34.61	40.734761432154
3	187610	34.71	40.616196314454
3	188167	34.81	40.517545430209
3	188724	34.91	40.442853415309
3	189289	35.01	40.395235250002
3	189846	35.11	40.376864578797
3	190403	35.21	40.387410541851
3	190960	35.31	40.423009659731
1	232	1.11	0
1	788	1.21	0
1	1344	1.31	0
1	1900	1.41	0
1	2456	1.51	0
1	3012	1.61	0
1	3568	1.71	0
1	4124	1.81	0
1	4680	1.91	0
1	5244	2.01	0
1	5800	2.11	0
1	6356	2.21	0
1	6912	2.31	0
1	7468	2.41	0
1	8024	2.51	0
1	8580	2.61	0
1	9136	2.71	0
1	9692	2.81	0
1	10248	2.91	0
1	10812	3.01	0
1	11368	3.11	0
1	11924	3.21	0
1	12480	3.31	0
1	13036	3.41	0
1	13592	3.51	0
1	14148	3.61	0
1	14704	3.71	0
1	15260	3.81	0
1	15816	3.91	0
1	16380	4.01	0
1	16936	4.11	0
1	17492	4.21	0
1	18048	4.31	0
1	18604	4.41	0
1	19160	4.51	0
1	19716	4.61	0
1	20272	4.71	0
1	20828	4.81	0
1	21384	4.91	0
1	21949	5.01	0
1	22506	5.11	0
1	23063	5.21	0
1	23620	5.31	0
1	24177	5.41	0
1	24734	5.51	0
1	25291	5.61	0
1	25848	5.71	0
1	26405	5.81	0
1	26962	5.91	0
1	27527	6.01	0
1	28084	6.11	0
1	28641	6.21	0
1	29198	6.31	0
1	29755	6.41	0
1	30312	6.51	0
1	30869	6.61	0
1	31426	6.71	0
1	31983	6.81	0
1	32540	6.91	0
1	33105	7.01	0
1	33662	7.11	0
1	34219	7.21	0
1	34776	7.31	0
1	35333	7.41	0
1	35890	7.51	0
1	36447	7.61	0
1	37004	7.71	0
1	37561	7.81	0
1	38118	7.91	0
1	38683	8.01	0
1	39240	8.11	0
1	39797	8.21	0
1	40354	8.31	0
1	40911	8.41	0
1	41468	8.51	0
1	42025	8.61	0
1	42582	8.71	0
1	43139	8.81	0
1	43696	8.91	0
1	44261	9.01	0
1	44818	9.11	0
1	45375	9.21	0
1	45932	9.31	0
1	46489	9.41	0
1	47046	9.51	0
1	47603	9.61	0
1	48160	9.71	0
1	48717	9.81	0
1	49274	9.91	0
1	49839	10.01	0
1	50396	10.11	0
1	50953	10.21	0
1	51510	10.31	0
1	52067	10.41	0
1	52624	10.51	0
1	53181	10.61	0
1	53738	10.71	0
1	54295	10.81	0
1	54852	10.91	0
1	55417	11.01	0
1	55974	11.11	0
1	56531	11.21	0
1	57088	11.31	0
1	57645	11.41	0
1	58202	11.51	0
1	58759	11.61	0
1	59316	11.71	0
1	59873	11.81	0
1	60430	11.91	0
1	60995	12.01	0
1	61552	12.11	0
1	62109	12.21	0
1	62666	12.31	0
1	63223	12.41	0
1	63780	12.51	0
1	64337	12.61	0
1	64894	12.71	0
1	65451	12.81	0
1	66008	12.91	0
1	66573	13.01	0
1	67130	13.11	0
1	67687	13.21	0
1	68244	13.31	0
1	68801	13.41	0
1	69358	13.51	0
1	69915	13.61	0
1	70472	13.71	0
1	71029	13.81	0
1	71586	13.91	0
1	72151	14.01	0
1	72708	14.11	0
1	73265	14.21	0
1	73822	14.31	0
1	74379	14.41	0
1	74936	14.51	0
1	75493	14.61	0
1	76050	14.71	0
1	76607	14.81	0
1	77164	14.91	0
1	77729	15.01	0
1	78286	15.11	0
1	78843	15.21	0
1	79400	15.31	0
1	79957	15.41	0
1	80514	15.51	0
1	81071	15.61	0
1	81628	15.71	0
1	82185	15.81	0
1	82742	15.91	0
1	83307	16.01	0
1	83864	16.11	0
1	84421	16.21	0
1	84978	16.31	0
1	85535	16.41	0
1	86092	16.51	0
1	86649	16.61	0
1	87206	16.71	0
1	87763	16.81	0
1	88320	16.91	0
1	88885	17.01	0
1	89442	17.11	0
1	89999	17.21	0
1	90556	17.31	0
1	91113	17.41	0
1	91670	17.51	0
1	92227	17.61	0
1	92784	17.71	0
1	93341	17.81	0
1	93898	17.91	0
1	94463	18.01	0
1	95020	18.11	0
1	95577	18.21	0
1	96134	18.31	0
1	96691	18.41	0
1	97248	18.51	0
1	97805	18.61	0
1	98362	18.71	0
1	98919	18.81	0
1	99476	18.91	0
1	100041	19.01	0
1	100598	19.11	0
1	101155	19.21	0
1	101712	19.31	0
1	102269	19.41	0
1	102826	19.51	0
1	103383	19.61	0
1	103940	19.71	0
1	104497	19.81	0
1	105054	19.91	0
1	105619	20.01	0
1	106176	20.11	0
1	106733	20.21	0
1	107290	20.31	0
1	107847	20.41	0
1	108404	20.51	0
1	108961	20.61	0
1	109518	20.71	0
1	110075	20.81	0
1	110632	20.91	0
1	111197	21.01	0
1	111754	21.11	0
1	112311	21.21	0
1	112868	21.31	0
1	113425	21.41	0
1	113982	21.51	0
1	114539	21.61	0
1	115096	21.71	0
1	115653	21.81	0
1	116210	21.91	0
1	116775	22.01	0
1	117332	22.11	0
1	117889	22.21	0
1	118446	22.31	0
1	119003	22.41	0
1	119560	22.51	0
1	120117	22.61	0
1	120674	22.71	0
1	121231	22.81	0
1	121788	22.91	0
1	122353	23.01	0
1	122910	23.11	0
1	123467	23.21	0
1	124024	23.31	0
1	124581	23.41	0
1	125138	23.51	0
1	125695	23.61	0
1	126252	23.71	0
1	126809	23.81	0
1	127366	23.91	0
1	127931	24.01	0
1	128488	24.11	0
1	129045	24.21	0
1	129602	24.31	0
1	130159	24.41	0
1	130716	24.51	0
1	131273	24.61	0
1	131830	24.71	0
1	132387	24.81	0
1	132944	24.91	0
1	133509	25.01	0
1	134066	25.11	0
1	134623	25.21	0
1	135180	25.31	0
1	135737	25.41	0
1	136294	25.51	0
1	136851	25.61	0
1	137408	25.71	0
1	137965	25.81	0
1	138522	25.91	0
1	139087	26.01	0
1	139644	26.11	0
1	140201	26.21	0
1	140758	26.31	0
1	141315	26.41	0
1	141872	26.51	0
1	142429	26.61	0
1	142986	26.71	0
1	143543	26.81	0
1	144100	26.91	0
1	144665	27.01	0
1	145222	27.11	0
1	145779	27.21	0
1	146336	27.31	0
1	146893	27.41	0
1	147450	27.51	0
1	148007	27.61	0
1	148564	27.71	0
1	149121	27.81	0
1	149678	27.91	0
1	150243	28.01	0
1	150800	28.11	0
1	151357	28.21	0
1	151914	28.31	0
1	152471	28.41	0
1	153028	28.51	0
1	153585	28.61	0
1	154142	28.71	0
1	154699	28.81	0
1	155256	28.91	0
1	155821	29.01	0
1	156378	29.11	0
1	156935	29.21	0
1	157492	29.31	0
1	158049	29.41	0
1	158606	29.51	0
1	159163	29.61	0
1	159720	29.71	0
1	160277	29.81	0
1	160834	29.91	0
1	161399	30.01	0
1	161956	30.11	0
1	162513	30.21	0
1	163070	30.31	0
1	163627	30.41	0
1	164184	30.51	0
1	164741	30.61	0
1	165298	30.71	0
1	165855	30.81	0
1	166412	30.91	0
1	166977	31.01	0
1	167534	31.11	0
1	168091	31.21	0
1	168648	31.31	0
1	169205	31.41	0
1	169762	31.51	0
1	170319	31.61	0
1	170876	31.71	0
1	171433	31.81	0
1	171990	31.91	0
1	172555	32.01	0
1	173112	32.11	0
1	173669	32.21	0
1	174226	32.31	0
1	174783	32.41	0
1	175340	32.51	0
1	175897	32.61	0
1	176454	32.71	0
1	177011	32.81	0
1	177568	32.91	0
1	178133	33.01	0
1	178690	33.11	0
1	179247	33.21	0
1	179804	33.31	0
1	180361	33.41	0
1	180918	33.51	0
1	181475	33.61	0
1	182032	33.71	0
1	182589	33.81	0
1	183146	33.91	0
1	183711	34.01	0
1	184268	34.11	0
1	184825	34.21	0
1	185382	34.31	0
1	185939	34.41	0
1	186496	34.51	0
1	187053	34.61	0
1	187610	34.71	0
1	188167	34.81	0
1	188724	34.91	0
1	189289	35.01	0
1	189846	35.11	0
1	190403	35.21	0
1	190960	35.31	0
0	232	1.11	-1
0	788	1.21	-1
0	1344	1.31	-1
0	1900	1.41	-1
0	2456	1.51	-1
0	3012	1.61	-1
0	3568	1.71	-1
0	4124	1.81	-1
0	4680	1.91	-1
0	5244	2.01	-1
0	5800	2.11	-1
0	6356	2.21	-1
0	6912	2.31	-1
0	7468	2.41	-1
0	8024	2.51	-1
0	8580	2.61	-1
0	9136	2.71	-1
0	9692	2.81	-1
0	10248	2.91	-1
0	10812	3.01	-1
0	11368	3.11	-1
0	11924	3.21	-1
0	12480	3.31	-1
0	13036	3.41	-1
0	13592	3.51	-1
0	14148	3.61	-1
0	14704	3.71	-1
0	15260	3.81	-1
0	15816	3.91	-1
0	16380	4.01	-1
0	16936	4.11	-1
0	17492	4.21	-1
0	18048	4.31	-1
0	18604	4.41	-1
0	19160	4.51	-1
0	19716	4.61	-1
0	20272	4.71	-1
0	20828	4.81	-1
0	21384	4.91	-1
0	21949	5.01	-1
0	22506	5.11	-1
0	23063	5.21	-1
0	23620	5.31	-1
0	24177	5.41	-1
0	24734	5.51	-1
0	25291	5.61	-1
0	25848	5.71	-1
0	26405	5.81	-1
0	26962	5.91	-1
0	27527	6.01	-1
0	28084	6.11	-1
0	28641	6.21	-1
0	29198	6.31	-1
0	29755	6.41	-1
0	30312	6.51	-1
0	30869	6.61	-1
0	31426	6.71	-1
0	31983	6.81	-1
0	32540	6.91	-1
0	33105	7.01	-1
0	33662	7.11	-1
0	34219	7.21	-1
0	34776	7.31	-1
0	35333	7.41	-1
0	35890	7.51	-1
0	36447	7.61	-1
0	37004	7.71	-1
0	37561	7.81	-1
0	38118	7.91	-1
0	38683	8.01	-1
0	39240	8.11	-1
0	39797	8.21	-1
0	40354	8.31	-1
0	40911	8.41	-1
0	41468	8.51	-1
0	42025	8.61	-1
0	42582	8.71	-1
0	43139	8.81	-1
0	43696	8.91	-1
0	44261	9.01	-1
0	44818	9.11	-1
0	45375	9.21	-1
0	45932	9.31	-1
0	46489	9.41	-1
0	47046	9.51	-1
0	47603	9.61	-1
0	48160	9.71	-1
0	48717	9.81	-1
0	49274	9.91	-1
0	49839	10.01	-1
0	50396	10.11	-1
0	50953	10.21	-1
0	51510	10.31	-1
0	52067	10.41	-1
0	52624	10.51	-1
0	53181	10.61	-1
0	53738	10.71	-1
0	54295	10.81	-1
0	54852	10.91	-1
0	55417	11.01	-1
0	55974	11.11	-1
0	56531	11.21	-1
0	57088	11.31	-1
0	57645	11.41	-1
0	58202	11.51	-1
0	58759	11.61	-1
0	59316	11.71	-1
0	59873	11.81	-1
0	60430	11.91	-1
0	60995	12.01	-1
0	61552	12.11	-1
0	62109	12.21	-1
0	62666	12.31	-1
0	63223	12.41	-1
0	63780	12.51	-1
0	64337	12.61	-1
0	64894	12.71	-1
0	65451	12.81	-1
0	66008	12.91	-1
0	66573	13.01	-1
0	67130	13.11	-1
0	67687	13.21	-1
0	68244	13.31	-1
0	68801	13.41	-1
0	69358	13.51	-1
0	69915	13.61	-1
0	70472	13.71	-1
0	71029	13.81	-1
0	71586	13.91	-1
0	72151	14.01	-1
0	72708	14.11	-1
0	73265	14.21	-1
0	73822	14.31	-1
0	74379	14.41	-1
0	74936	14.51	-1
0	75493	14.61	-1
0	76050	14.71	-1
0	76607	14.81	-1
0	77164	14.91	-1
0	77729	15.01	-1
0	78286	15.11	-1
0	78843	15.21	-1
0	79400	15.31	-1
0	79957	15.41	-1
0	80514	15.51	-1
0	81071	15.61	-1
0	81628	15.71	-1
0	82185	15.81	-1
0	82742	15.91	-1
0	83307	16.01	-1
0	83864	16.11	-1
0	84421	16.21	-1
0	84978	16.31	-1
0	85535	16.41	-1
0	86092	16.51	-1
0	86649	16.61	-1
0	87206	16.71	-1
0	87763	16.81	-1
0	88320	16.91	-1
0	88885	17.01	-1
0	89442	17.11	-1
0	89999	17.21	-1
0	90556	17.31	-1
0	91113	17.41	-1
0	91670	17.51	-1
0	92227	17.61	-1
0	92784	17.71	-1
0	93341	17.81	-1
0	93898	17.91	-1
0	94463	18.01	-1
0	95020	18.11	-1
0	95577	18.21	-1
0	96134	18.31	-1
0	96691	18.41	-1
0	97248	18.51	-1
0	97805	18.61	-1
0	98362	18.71	-1
0	98919	18.81	-1
0	99476	18.91	-1
0	100041	19.01	-1
0	100598	19.11	-1
0	101155	19.21	-1
0	101712	19.31	-1
0	102269	19.41	-1
0	102826	19.51	-1
0	103383	19.61	-1
0	103940	19.71	-1
0	104497	19.81	-1
0	105054	19.91	-1
0	105619	20.01	-1
0	106176	20.11	-1
0	106733	20.21	-1
0	107290	20.31	-1
0	107847	20.41	-1
0	108404	20.51	-1
0	108961	20.61	-1
0	109518	20.71	-1
0	110075	20.81	-1
0	110632	20.91	-1
0	111197	21.01	-1
0	111754	21.11	-1
0	112311	21.21	-1
0	112868	21.31	-1
0	113425	21.41	-1
0	113982	21.51	-1
0	114539	21.61	-1
0	115096	21.71	-1
0	115653	21.81	-1
0	116210	21.91	-1
0	116775	22.01	-1
0	117332	22.11	-1
0	117889	22.21	-1
0	118446	22.31	-1
0	119003	22.41	-1
0	119560	22.51	-1
0	120117	22.61	-1
0	120674	22.71	-1
0	121231	22.81	-1
0	121788	22.91	-1
0	122353	23.01	-1
0	122910	23.11	-1
0	123467	23.21	-1
0	124024	23.31	-1
0	124581	23.41	-1
0	125138	23.51	-1
0	125695	23.61	-1
0	126252	23.71	-1
0	126809	23.81	-1
0	127366	23.91	-1
0	127931	24.01	-1
0	128488	24.11	-1
0	129045	24.21	-1
0	129602	24.31	-1
0	130159	24.41	-1
0	130716	24.51	-1
0	131273	24.61	-1
0	131830	24.71	-1
0	132387	24.81	-1
0	132944	24.91	-1
0	133509	25.01	-1
0	134066	25.11	-1
0	134623	25.21	-1
0	135180	25.31	-1
0	135737	25.41	-1
0	136294	25.51	-1
0	136851	25.61	-1
0	137408	25.71	-1
0	137965	25.81	-1
0	138522	25.91	-1
0	139087	26.01	-1
0	139644	26.11	-1
0	140201	26.21	-1
0	140758	26.31	-1
0	141315	26.41	-1
0	141872	26.51	-1
0	142429	26.61	-1
0	142986	26.71	-1
0	143543	26.81	-1
0	144100	26.91	-1
0	144665	27.01	-1
0	145222	27.11	-1
0	145779	27.21	-1
0	146336	27.31	-1
0	146893	27.41	-1
0	147450	27.51	-1
0	148007	27.61	-1
0	148564	27.71	-1
0	149121	27.81	-1
0	149678	27.91	-1
0	150243	28.01	-1
0	150800	28.11	-1
0	151357	28.21	-1
0	151914	28.31	-1
0	152471	28.41	-1
0	153028	28.51	-1
0	153585	28.61	-1
0	154142	28.71	-1
0	154699	28.81	-1
0	155256	28.91	-1
0	155821	29.01	-1
0	156378	29.11	-1
0	156935	29.21	-1
0	157492	29.31	-1
0	158049	29.41	-1
0	158606	29.51	-1
0	159163	29.61	-1
0	159720	29.71	-1
0	160277	29.81	-1
0	160834	29.91	-1
0	161399	30.01	-1
0	161956	30.11	-1
0	162513	30.21	-1
0	163070	30.31	-1
0	163627	30.41	-1
0	164184	30.51	-1
0	164741	30.61	-1
0	165298	30.71	-1
0	165855	30.81	-1
0	166412	30.91	-1
0	166977	31.01	-1
0	167534	31.11	-1
0	168091	31.21	-1
0	168648	31.31	-1
0	169205	31.41	-1
0	169762	31.51	-1
0	170319	31.61	-1
0	170876	31.71	-1
0	171433	31.81	-1
0	171990	31.91	-1
0	172555	32.01	-1
0	173112	32.11	-1
0	173669	32.21	-1
0	174226	32.31	-1
0	174783	32.41	-1
0	175340	32.51	-1
0	175897	32.61	-1
0	176454	32.71	-1
0	177011	32.81	-1
0	177568	32.91	-1
0	178133	33.01	-1
0	178690	33.11	-1
0	179247	33.21	-1
0	179804	33.31	-1
0	180361	33.41	-1
0	180918	33.51	-1
0	181475	33.61	-1
0	182032	33.71	-1
0	182589	33.81	-1
0	183146	33.91	-1
0	183711	34.01	-1
0	184268	34.11	-1
0	184825	34.21	-1
0	185382	34.31	-1
0	185939	34.41	-1
0	186496	34.51	-1
0	187053	34.61	-1
0	187610	34.71	-1
0	188167	34.81	-1
0	188724	34.91	-1
0	189289	35.01	-1
0	189846	35.11	-1
0	190403	35.21	-1
0	190960	35.31	-1
2	232	1.11	0
2	788	1.21	0
2	1344	1.31	0
2	1900	1.41	0
2	2456	1.51	0
2	3012	1.61	0
2	3568	1.71	0
2	4124	1.81	0
2	4680	1.91	0
2	5244	2.01	0
2	5800	2.11	0
2	6356	2.21	0
2	6912	2.31	0
2	7468	2.41	0
2	8024	2.51	0
2	8580	2.61	0
2	9136	2.71	0
2	9692	2.81	0
2	10248	2.91	0
2	10812	3.01	0
2	11368	3.11	0
2	11924	3.21	0
2	12480	3.31	0
2	13036	3.41	0
2	13592	3.51	0
2	14148	3.61	0
2	14704	3.71	0
2	15260	3.81	0
2	15816	3.91	0
2	16380	4.01	0
2	16936	4.11	0
2	17492	4.21	0
2	18048	4.31	0
2	18604	4.41	0
2	19160	4.51	0
2	19716	4.61	0
2	20272	4.71	0
2	20828	4.81	0
2	21384	4.91	0
2	21949	5.01	0
2	22506	5.11	0
2	23063	5.21	0
2	23620	5.31	0
2	24177	5.41	0
2	24734	5.51	0
2	25291	5.61	0
2	25848	5.71	0
2	26405	5.81	0
2	26962	5.91	0
2	27527	6.01	0
2	28084	6.11	0
2	28641	6.21	0
2	29198	6.31	0
2	29755	6.41	0
2	30312	6.51	0
2	30869	6.61	0
2	31426	6.71	0
2	31983	6.81	0
2	32540	6.91	0
2	33105	7.01	0
2	33662	7.11	0
2	34219	7.21	0
2	34776	7.31	0
2	35333	7.41	0
2	35890	7.51	0
2	36447	7.61	0
2	37004	7.71	0
2	37561	7.81	0
2	38118	7.91	0
2	38683	8.01	0
2	39240	8.11	0
2	39797	8.21	0
2	40354	8.31	0
2	40911	8.41	0
2	41468	8.51	0
2	42025	8.61	0
2	42582	8.71	0
2	43139	8.81	0
2	43696	8.91	0
2	44261	9.01	0
2	44818	9.11	0
2	45375	9.21	0
2	45932	9.31	0
2	46489	9.41	0
2	47046	9.51	0
2	47603	9.61	0
2	48160	9.71	0
2	48717	9.81	0
2	49274	9.91	0
2	49839	10.01	0
2	50396	10.11	0
2	50953	10.21	0
2	51510	10.31	0
2	52067	10.41	0
2	52624	10.51	0
2	53181	10.61	0
2	53738	10.71	0
2	54295	10.81	0
2	54852	10.91	0
2	55417	11.01	0
2	55974	11.11	0
2	56531	11.21	0
2	57088	11.31	0
2	57645	11.41	0
2	58202	11.51	0
2	58759	11.61	0
2	59316	11.71	0
2	59873	11.81	0
2	60430	11.91	0
2	60995	12.01	0
2	61552	12.11	0
2	62109	12.21	0
2	62666	12.31	0
2	63223	12.41	0
2	63780	12.51	0
2	64337	12.61	0
2	64894	12.71	0
2	65451	12.81	0
2	66008	12.91	0
2	66573	13.01	0
2	67130	13.11	0
2	67687	13.21	0
2	68244	13.31	0
2	68801	13.41	0
2	69358	13.51	0
2	69915	13.61	0
2	70472	13.71	0
2	71029	13.81	0
2	71586	13.91	0
2	72151	14.01	0
2	72708	14.11	0
2	73265	14.21	0
2	73822	14.31	0
2	74379	14.41	0
2	74936	14.51	0
2	75493	14.61	0
2	76050	14.71	0
2	76607	14.81	0
2	77164	14.91	0
2	77729	15.01	0
2	78286	15.11	0
2	78843	15.21	0
2	79400	15.31	0
2	79957	15.41	0
2	80514	15.51	0
2	81071	15.61	0
2	81628	15.71	0
2	82185	15.81	0
2	82742	15.91	0
2	83307	16.01	0
2	83864	16.11	0
2	84421	16.21	0
2	84978	16.31	0
2	85535	16.41	0
2	86092	16.51	0
2	86649	16.61	0
2	87206	16.71	0
2	87763	16.81	0
2	88320	16.91	0
2	88885	17.01	0
2	89442	17.11	0
2	89999	17.21	0
2	90556	17.31	0
2	91113	17.41	0
2	91670	17.51	0
2	92227	17.61	0
2	92784	17.71	0
2	93341	17.81	0
2	93898	17.91	0
2	94463	18.01	0
2	95020	18.11	0
2	95577	18.21	0
2	96134	18.31	0
2	96691	18.41	0
2	97248	18.51	0
2	97805	18.61	0
2	98362	18.71	0
2	98919	18.81	0
2	99476	18.91	0
2	100041	19.01	0
2	100598	19.11	0
2	101155	19.21	0
2	101712	19.31	0
2	102269	19.41	0
2	102826	19.51	0
2	103383	19.61	0
2	103940	19.71	0
2	104497	19.81	0
2	105054	19.91	0
2	105619	20.01	0
2	106176	20.11	0
2	106733	20.21	0
2	107290	20.31	0
2	107847	20.41	0
2	108404	20.51	0
2	108961	20.61	0
2	109518	20.71	0
2	110075	20.81	0
2	110632	20.91	0
2	111197	21.01	0
2	111754	21.11	0
2	112311	21.21	0
2	112868	21.31	0
2	113425	21.41	0
2	113982	21.51	0
2	114539	21.61	0
2	115096	21.71	0
2	115653	21.81	0
2	116210	21.91	0
2	116775	22.01	0
2	117332	22.11	0
2	117889	22.21	0
2	118446	22.31	0
2	119003	22.41	0
2	119560	22.51	0
2	120117	22.61	0
2	120674	22.71	0
2	121231	22.81	0
2	121788	22.91	0
2	122353	23.01	0
2	122910	23.11	0
2	123467	23.21	0
2	124024	23.31	0
2	124581	23.41	0
2	125138	23.51	0
2	125695	23.61	0
2	126252	23.71	0
2	126809	23.81	0
2	127366	23.91	0
2	127931	24.01	0
2	128488	24.11	0
2	129045	24.21	0
2	129602	24.31	0
2	130159	24.41	0
2	130716	24.51	0
2	131273	24.61	0
2	131830	24.71	0
2	132387	24.81	0
2	132944	24.91	0
2	133509	25.01	0
2	134066	25.11	0
2	134623	25.21	0
2	135180	25.31	0
2	135737	25.41	0
2	136294	25.51	0
2	136851	25.61	0
2	137408	25.71	0
2	137965	25.81	0
2	138522	25.91	0
2	139087	26.01	0
2	139644	26.11	0
2	140201	26.21	0
2	140758	26.31	0
2	141315	26.41	0
2	141872	26.51	0
2	142429	26.61	0
2	142986	26.71	0
2	143543	26.81	0
2	144100	26.91	0
2	144665	27.01	0
2	145222	27.11	0
2	145779	27.21	0
2	146336	27.31	0
2	146893	27.41	0
2	147450	27.51	0
2	148007	27.61	0
2	148564	27.71	0
2	149121	27.81	0
2	149678	27.91	0
2	150243	28.01	0
2	150800	28.11	0
2	151357	28.21	0
2	151914	28.31	0
2	152471	28.41	0
2	153028	28.51	0
2	153585	28.61	0
2	154142	28.71	0
2	154699	28.81	0
2	155256	28.91	0
2	155821	29.01	0
2	156378	29.11	0
2	156935	29.21	0
2	157492	29.31	0
2	158049	29.41	0
2	158606	29.51	0
2	159163	29.61	0
2	159720	29.71	0
2	160277	29.81	0
2	160834	29.91	0
2	161399	30.01	0
2	161956	30.11	0
2	162513	30.21	0
2	163070	30.31	0
2	163627	30.41	0
2	164184	30.51	0
2	164741	30.61	0
2	165298	30.71	0
2	165855	30.81	0
2	166412	30.91	0
2	166977	31.01	0
2	167534	31.11	0
2	168091	31.21	0
2	168648	31.31	0
2	169205	31.41	0
2	169762	31.51	0
2	170319	31.61	0
2	170876	31.71	0
2	171433	31.81	0
2	171990	31.91	0
2	172555	32.01	0
2	173112	32.11	0
2	173669	32.21	0
2	174226	32.31	0
2	174783	32.41	0
2	175340	32.51	0
2	175897	32.61	0
2	176454	32.71	0
2	177011	32.81	0
2	177568	32.91	0
2	178133	33.01	0
2	178690	33.11	0
2	179247	33.21	0
2	179804	33.31	0
2	180361	33.41	0
2	180918	33.51	0
2	181475	33.61	0
2	182032	33.71	0
2	182589	33.81	0
2	183146	33.91	0
2	183711	34.01	0
2	184268	34.11	0
2	184825	34.21	0
2	185382	34.31	0
2	185939	34.41	0
2	186496	34.51	0
2	187053	34.61	0
2	187610	34.71	0
2	188167	34.81	0
2	188724	34.91	0
2	189289	35.01	0
2	189846	35.11	0
2	190403	35.21	0
2	190960	35.31	0
10	5056	2	0
10	10624	3	0
10	16192	4	0
10	21761	5	0
10	27338	6	0
10	32916	7	0
10	38494	8	0
10	44072	9	0
10	49650	10	0
10	55228	11	0
10	60806	12	0
10	66384	13	0
10	71962	14	0
10	77540	15	0
10	83118	16	0
10	88696	17	0
10	94274	18	0
10	99852	19	0
10	105430	20	0
10	111008	21	0
10	116586	22	0
10	122164	23	0
10	127742	24	0
10	133320	25	0
10	138898	26	0
10	144476	27	0
10	150054	28	0
10	155632	29	0
10	161210	30	0
10	166788	31	0
10	172366	32	0
10	177944	33	0
10	183522	34	0
10	189100	35	0
9	5056	2	0.022765634224
9	10624	3	0.02624746008
9	16192	4	0.02624746008
9	21761	5	0.02624746008
9	27338	6	0.02624745847
9	32916	7	0.026260444151
9	38494	8	0.026247428451
9	44072	9	0.026247434738
9	49650	10	0.026247453232
9	55228	11	0.026247465342
9	60806	12	0.026260455095
9	66384	13	0.026247439336
9	71962	14	0.026247443497
9	77540	15	0.026247461863
9	83118	16	0.026247472369
9	88696	17	0.026247460953
9	94274	18	0.026260444204
9	99852	19	0.026247447274
9	105430	20	0.026247464972
9	111008	21	0.026247474791
9	116586	22	0.026247462857
9	122164	23	0.026260445701
9	127742	24	0.026247448414
9	133320	25	0.026247465857
9	138898	26	0.026247475461
9	144476	27	0.026247463352
9	150054	28	0.026260446084
9	155632	29	0.026247448691
9	161210	30	0.026247466064
9	166788	31	0.026247475601
9	172366	32	0.026247463458
9	177944	33	0.026260448369
9	183522	34	0.02624750447
9	189100	35	0.026247717829
8	5056	2	0
8	10624	3	0
8	16192	4	0
8	21761	5	0
8	27338	6	0
8	32916	7	0
8	38494	8	0
8	44072	9	0
8	49650	10	0
8	55228	11	0
8	60806	12	0
8	66384	13	0
8	71962	14	0
8	77540	15	0
8	83118	16	0
8	88696	17	0
8	94274	18	0
8	99852	19	0
8	105430	20	0
8	111008	21	0
8	116586	22	0
8	122164	23	0
8	127742	24	0
8	133320	25	0
8	138898	26	0
8	144476	27	0
8	150054	28	0
8	155632	29	0
8	161210	30	0
8	166788	31	0
8	172366	32	0
8	177944	33	0
8	183522	34	0
8	189100	35	0
51	234	1.11	0
51	790	1.21	-1.2579844101879e-06
51	1346	1.31	-1.2289634540252e-06
51	1902	1.41	-1.18333764064e-06
51	2458	1.51	-1.1249762815169e-06
51	3014	1.61	-1.057269081457e-06
51	3570	1.71	-9.8315322787812e-07
51	4126	1.81	-9.0514381170692e-07
51	4682	1.91	-8.2536619586904e-07
51	5246	2.01	-7.4558897722454e-07
51	5802	2.11	-6.6725734811257e-07
51	6358	2.21	-5.9152643174798e-07
51	6914	2.31	-5.1929321685407e-07
51	7470	2.41	-4.5122750407245e-07
51	8026	2.51	-3.8780126573101e-07
51	8582	2.61	-3.2931622129695e-07
51	9138	2.71	-2.7592941620469e-07
51	9694	2.81	-2.2767663935497e-07
51	10250	2.91	-1.8449396037568e-07
51	10814	3.01	-1.4623697893512e-07
51	11370	3.11	-1.1269805469283e-07
51	11926	3.21	-8.3621577573467e-08
51	12482	3.31	-5.8717324833424e-08
51	13038	3.41	-3.76720613815e-08
51	13594	3.51	-2.0159171896239e-08
51	14150	3.61	-5.8472062391957e-09
51	14706	3.71	5.5932423492777e-09
51	15262	3.81	1.4483871240145e-08
51	15818	3.91	2.1134418517477e-08
51	16382	4.01	2.5839227504321e-08
51	16938	4.11	2.8874449071736e-08
51	17494	4.21	3.0496477450015e-08
51	18050	4.31	3.0940888819941e-08
51	18606	4.41	3.0421932848412e-08
51	19162	4.51	2.9132509951069e-08
51	19718	4.61	2.7244517326608e-08
51	20274	4.71	2.4909578542065e-08
51	20830	4.81	2.2259873730945e-08
51	21386	4.91	1.9409295077821e-08
51	21951	5.01	1.6454634277352e-08
51	22508	5.11	1.3476950186941e-08
51	23065	5.21	0.34731423452592
51	23622	5.31	0.6832965816152
51	24179	5.41	0.99759384926574
51	24736	5.51	1.2813014149183
51	25293	5.61	1.5117600025089
51	25850	5.71	1.5152444875972
51	26407	5.81	1.518142033073
51	26964	5.91	1.5205551236052
51	27529	6.01	1.5225677891872
51	28086	6.11	1.5242492473938
51	28643	6.21	1.5256565156036
51	29200	6.31	1.5268365633767
51	29757	6.41	1.5278280858647
51	30314	6.51	1.5286629649087
51	30871	6.61	1.439142620559
51	31428	6.71	1.1741616015716
51	31985	6.81	0.87318848936725
51	32542	6.91	0.54357615210256
51	33107	7.01	0.19292635880227
51	33664	7.11	-0.17103686995112
51	34221	7.21	-0.54059084678883
51	34778	7.31	-0.90813365703038
51	35335	7.41	-1.2662983549806
51	35892	7.51	-1.4981833886463
51	36449	7.61	-1.5030977731539
51	37006	7.71	-1.5072034051048
51	37563	7.81	-1.5106420356804
51	38120	7.91	-1.5135302185038
51	38685	8.01	-1.5159637834854
51	39242	8.11	-1.5180215183093
51	39799	8.21	-1.5197681977121
51	40356	8.31	-1.5212570759196
51	40913	8.41	-1.5225319372045
51	41470	8.51	-1.5236287827409
51	42027	8.61	-1.5245772181089
51	42584	8.71	-1.5254015944263
51	43141	8.81	-1.5261219467199
51	43698	8.91	-1.5267547654405
51	44263	9.01	-1.5273136306769
51	44820	9.11	-1.5278097334001
51	45377	9.21	-1.5282523037687
51	45934	9.31	-1.5286489629812
51	46491	9.41	-1.5290060122474
51	47048	9.51	-1.5293286681453
51	47605	9.61	-1.1202389532671
51	48162	9.71	-0.6854221803168
51	48719	9.81	-0.24239416999567
51	49276	9.91	0.198283940551
51	49841	10.01	0.62684244826017
51	50398	10.11	1.0343720521733
51	50955	10.21	1.4128825586012
51	51512	10.31	1.5006228805094
51	52069	10.41	1.5055146629222
51	52626	10.51	1.5095890938865
51	53183	10.61	1.5129896522104
51	53740	10.71	1.515834319654
51	54297	10.81	1.5182201056024
51	54854	10.91	1.5202267708761
51	55419	11.01	1.5219198922345
51	55976	11.11	1.5233533841143
51	56533	11.21	1.5245715735498
51	57090	11.31	1.52561090727
51	57647	11.41	1.5265013560128
51	58204	11.51	1.5272675696072
51	58761	11.61	1.5279298269129
51	59318	11.71	1.5285048169219
51	59875	11.81	1.5290062809105
51	60432	11.91	1.4679371123507
[...]
35	103988	19.769559609632	0.099998953105
35	104545	19.869558562545	0.099998952913
35	105102	19.969557515287	0.099998952742
35	105667	20.069556467887	0.0999989526
35	106224	20.169555420379	0.099998952492
35	106781	20.269554372799	0.09999895242
35	107338	20.369566325183	0.100011952384
35	107895	20.469565277566	0.099998952383
35	108452	20.56956422998	0.099998952414
35	109009	20.669563182447	0.099998952467
35	109566	20.769562134989	0.099998952542
35	110123	20.869561087627	0.099998952638
35	110680	20.969560040375	0.099998952748
35	111245	21.06955899325	0.099998952875
35	111802	21.169557946261	0.099998953011
35	112359	21.269556899419	0.099998953158
35	112916	21.369555852733	0.099998953314
35	113473	21.469554806214	0.099998953481
35	114030	21.56956675987	0.100011953656
35	114587	21.669565713709	0.099998953839
35	115144	21.769564667736	0.099998954027
35	115701	21.869563621962	0.099998954226
35	116258	21.96956257639	0.099998954428
35	116823	22.069561531028	0.099998954638
35	117380	22.169560485875	0.099998954847
35	117937	22.269559440924	0.099998955049
35	118494	22.369558396161	0.099998955237
35	119051	22.469557351564	0.099998955403
35	119608	22.569556307102	0.099998955538
35	120165	22.669555262748	0.099998955646
35	120722	22.769554218461	0.099998955713
35	121279	22.869566174204	0.100011955743
35	121836	22.969565129944	0.09999895574
35	122401	23.06956408565	0.099998955706
35	122958	23.169563041296	0.099998955646
35	123515	23.269561996864	0.099998955568
35	124072	23.369560952333	0.099998955469
35	124629	23.469559907688	0.099998955355
35	125186	23.569558862915	0.099998955227
35	125743	23.669557818002	0.099998955087
35	126300	23.76955677294	0.099998954938
35	126857	23.869555727717	0.099998954777
35	127414	23.969554682326	0.099998954609
35	127979	24.069566636756	0.10001195443
35	128536	24.169565591003	0.099998954247
35	129093	24.269564545054	0.099998954051
35	129650	24.369563498907	0.099998953853
35	130207	24.469562452553	0.099998953646
35	130764	24.56956140599	0.099998953437
35	131321	24.669560359216	0.099998953226
35	131878	24.769559312236	0.09999895302
35	132435	24.869558265068	0.099998952832
35	132992	24.969557217731	0.099998952663
35	133557	25.069556170253	0.099998952522
35	134114	25.169555122669	0.099998952416
35	134671	25.269554075015	0.099998952346
35	135228	25.369566027327	0.100011952312
35	135785	25.469564979641	0.099998952314
35	136342	25.569563931986	0.099998952345
35	136899	25.669562884389	0.099998952403
35	137456	25.76956183687	0.099998952481
35	138013	25.869560789447	0.099998952577
35	138570	25.969559742137	0.09999895269
35	139135	26.069558694952	0.099998952815
35	139692	26.169557647907	0.099998952955
35	140249	26.26955660101	0.099998953103
35	140806	26.369555554273	0.099998953263
35	141363	26.469554507702	0.099998953429
35	141920	26.569566461308	0.100011953606
35	142477	26.669565415098	0.09999895379
35	143034	26.769564369081	0.099998953983
35	143591	26.869563323261	0.09999895418
35	144148	26.969562277646	0.099998954385
35	144713	27.069561232239	0.099998954593
35	145270	27.169560187043	0.099998954804
35	145827	27.269559142049	0.099998955006
35	146384	27.369558097244	0.099998955195
35	146941	27.469557052606	0.099998955362
35	147498	27.569556008109	0.099998955503
35	148055	27.669554963718	0.099998955609
35	148612	27.769566919394	0.100011955676
35	149169	27.869565875103	0.099998955709
35	149726	27.969564830809	0.099998955706
35	150291	28.069563786483	0.099998955674
35	150848	28.169562742099	0.099998955616
35	151405	28.269561697635	0.099998955536
35	151962	28.369560653074	0.099998955439
35	152519	28.469559608401	0.099998955327
35	153076	28.569558563602	0.099998955201
35	153633	28.669557518663	0.099998955061
35	154190	28.769556473573	0.09999895491
35	154747	28.869555428325	0.099998954752
35	155304	28.969554382909	0.099998954584
35	155869	29.069566337315	0.100011954406
35	156426	29.169565291536	0.099998954221
35	156983	29.269564245566	0.09999895403
35	157540	29.369563199398	0.099998953832
35	158097	29.469562153022	0.099998953624
35	158654	29.569561106439	0.099998953417
35	159211	29.669560059644	0.099998953205
35	159768	29.769559012645	0.099998953001
35	160325	29.869557965456	0.099998952811
35	160882	29.9695569181	0.099998952644
35	161447	30.069555870606	0.099998952506
35	162004	30.169554823005	0.099998952399
35	162561	30.269566775335	0.10001195233
35	163118	30.369565727631	0.099998952296
35	163675	30.46956467993	0.099998952299
35	164232	30.569563632261	0.099998952331
35	164789	30.669562584651	0.09999895239
35	165346	30.769561537117	0.099998952466
35	165903	30.869560489682	0.099998952565
35	166460	30.969559442361	0.099998952679
35	167025	31.069558395165	0.099998952804
35	167582	31.169557348107	0.099998952942
35	168139	31.269556301199	0.099998953092
35	168696	31.369555254453	0.099998953254
35	169253	31.469554207872	0.099998953419
35	169810	31.569566161467	0.100011953595
35	170367	31.669565115248	0.099998953781
35	170924	31.769564069218	0.09999895397
35	171481	31.869563023387	0.099998954169
35	172038	31.969561977762	0.099998954375
35	172603	32.069560932347	0.099998954585
35	173160	32.169559887142	0.099998954795
35	173717	32.269558842137	0.099998954995
35	174274	32.369557797313	0.099998955176
35	174831	32.469556752635	0.099998955322
35	175388	32.569555708052	0.099998955417
35	175945	32.669554663494	0.099998955442
35	176502	32.769566618876	0.100011955382
35	177059	32.869565574096	0.09999895522
35	177616	32.969564529034	0.099998954938
35	178181	33.069563483562	0.099998954528
35	178738	33.169562437541	0.099998953979
35	179295	33.269561390825	0.099998953284
35	179852	33.369560343262	0.099998952437
35	180409	33.469559294696	0.099998951434
35	180966	33.569558244962	0.099998950266
35	181523	33.669557193894	0.099998948932
35	182080	33.769556141326	0.099998947432
35	182637	33.869555087084	0.099998945758
35	183194	33.969554030995	0.099998943911
35	183759	34.069565972882	0.100011941887
35	184316	34.16956491257	0.099998939688
35	184873	34.269563849878	0.099998937308
35	185430	34.36956278463	0.099998934752
35	185987	34.469561716644	0.099998932014
35	186544	34.56956064574	0.099998929096
35	187101	34.669559571744	0.099998926004
35	187658	34.769558494493	0.099998922749
35	188215	34.869557413834	0.099998919341
35	188772	34.969556329631	0.099998915797
35	189337	35.069555241762	0.099998912131
35	189894	35.169554150129	0.099998908367
35	190451	35.26956605465	0.100011904521
36	836	1.269557990684	0.099998953992
36	1392	1.369556944676	0.099998953992
36	1948	1.469555898668	0.099998953992
36	2504	1.56955485266	0.099998953992
36	3060	1.669566806652	0.100011953992
36	3616	1.769565760644	0.099998953992
36	4172	1.869564714636	0.099998953992
36	4728	1.969563668628	0.099998953992
36	5292	2.06956262262	0.099998953992
36	5848	2.169561576612	0.099998953992
36	6404	2.269560530604	0.099998953992
36	6960	2.369559484596	0.099998953992
36	7516	2.469558438588	0.099998953992
36	8072	2.56955739258	0.099998953992
36	8628	2.669556346572	0.099998953992
36	9184	2.769555300564	0.099998953992
36	9740	2.869554254556	0.099998953992
36	10296	2.969566208548	0.100011953992
36	10860	3.06956516254	0.099998953992
36	11416	3.169564116532	0.099998953992
36	11972	3.269563070524	0.099998953992
36	12528	3.369562024516	0.099998953992
36	13084	3.469560978508	0.099998953992
36	13640	3.5695599325	0.099998953992
36	14196	3.669558886492	0.099998953992
36	14752	3.769557840484	0.099998953992
36	15308	3.869556794476	0.099998953992
36	15864	3.969555748468	0.099998953992
36	16428	4.06955470246	0.099998953992
36	16984	4.169566656452	0.100011953992
36	17540	4.269565610444	0.099998953992
36	18096	4.369564564436	0.099998953992
36	18652	4.469563518428	0.099998953992
36	19208	4.56956247242	0.099998953992
36	19764	4.669561426412	0.099998953992
36	20320	4.769560380404	0.099998953992
36	20876	4.869559334396	0.099998953992
36	21432	4.969558288388	0.099998953992
36	21997	5.06955724238	0.099998953992
36	22554	5.169556196372	0.099998953992
36	23111	5.269555150368	0.099998953996
36	23668	5.369554104372	0.099998954004
36	24225	5.469566058395	0.100011954023
36	24782	5.569565012458	0.099998954063
36	25339	5.66956396658	0.099998954122
36	25896	5.769562920787	0.099998954207
36	26453	5.869561875102	0.099998954315
36	27010	5.969560829547	0.099998954445
36	27575	6.069559784139	0.099998954592
36	28132	6.169558738893	0.099998954754
36	28689	6.269557693824	0.099998954931
36	29246	6.369556648944	0.09999895512
36	29803	6.469555604263	0.099998955319
36	30360	6.569554559786	0.099998955523
36	30917	6.669566515528	0.100011955742
36	31474	6.769565471491	0.099998955963
36	32031	6.869564427675	0.099998956184
36	32588	6.969563384074	0.099998956399
36	33153	7.069562340681	0.099998956607
36	33710	7.169561297477	0.099998956796
36	34267	7.269560254438	0.099998956961
36	34824	7.369559211538	0.0999989571
36	35381	7.469558168744	0.099998957206
36	35938	7.569557126022	0.099998957278
36	36495	7.669556083337	0.099998957315
36	37052	7.769555040656	0.099998957319
36	37609	7.86955399795	0.099998957294
36	38166	7.969565955194	0.100011957244
36	38731	8.069564912364	0.09999895717
36	39288	8.169563869449	0.099998957085
36	39845	8.269562826426	0.099998956977
36	40402	8.369561783287	0.099998956861
36	40959	8.469560740016	0.099998956729
36	41516	8.569559696601	0.099998956585
36	42073	8.669558653037	0.099998956436
36	42630	8.769557609312	0.099998956275
36	43187	8.869556565418	0.099998956106
36	43744	8.969555521349	0.099998955931
36	44309	9.069554477094	0.099998955745
36	44866	9.169566432644	0.10001195555
36	45423	9.269565387996	0.099998955352
36	45980	9.369564343142	0.099998955146
36	46537	9.469563298075	0.099998954933
36	47094	9.56956225279	0.099998954715
36	47651	9.669561207282	0.099998954492
36	48208	9.769560161553	0.099998954271
36	48765	9.869559115609	0.099998954056
36	49322	9.969558069471	0.099998953862
36	49887	10.069557023162	0.099998953691
36	50444	10.169555976712	0.09999895355
36	51001	10.269554930157	0.099998953445
36	51558	10.369566883535	0.100011953378
36	52115	10.469565836882	0.099998953347
36	52672	10.569564790232	0.09999895335
36	53229	10.669563743612	0.09999895338
36	53786	10.76956269705	0.099998953438
36	54343	10.869561650564	0.099998953514
36	54900	10.969560604171	0.099998953607
36	55465	11.069559557886	0.099998953715
36	56022	11.169558511724	0.099998953838
36	56579	11.269557465695	0.099998953971
36	57136	11.369556419813	0.099998954118
36	57693	11.469555374082	0.099998954269
36	58250	11.569554328512	0.09999895443
36	58807	11.669566283115	0.100011954603
36	59364	11.769565237898	0.099998954783
36	59921	11.869564192866	0.099998954968
36	60478	11.969563148026	0.09999895516
36	61043	12.069562103384	0.099998955358
36	61600	12.169561058937	0.099998955553
36	62157	12.269560014678	0.099998955741
36	62714	12.36955897059	0.099998955912
36	63271	12.469557926651	0.099998956061
36	63828	12.569556882831	0.09999895618
36	64385	12.669555839098	0.099998956267
36	64942	12.769554795414	0.099998956316
36	65499	12.869566751744	0.10001195633
36	66056	12.969565708051	0.099998956307
36	66621	13.069564664312	0.099998956261
36	67178	13.169563620498	0.099998956186
36	67735	13.269562576591	0.099998956093
36	68292	13.369561532573	0.099998955982
36	68849	13.46956048843	0.099998955857
36	69406	13.569559444148	0.099998955718
36	69963	13.669558399716	0.099998955568
36	70520	13.769557355123	0.099998955407
36	71077	13.869556310361	0.099998955238
36	71634	13.969555265421	0.09999895506
36	72199	14.069554220295	0.099998954874
36	72756	14.169566174973	0.100011954678
36	73313	14.269565129452	0.099998954479
36	73870	14.369564083723	0.099998954271
36	74427	14.469563037779	0.099998954056
36	74984	14.569561991616	0.099998953837
36	75541	14.669560945236	0.09999895362
36	76098	14.769559898641	0.099998953405
36	76655	14.869558851846	0.099998953205
36	77212	14.969557804874	0.099998953028
36	77777	15.069556757753	0.099998952879
36	78334	15.169555710514	0.099998952761
36	78891	15.269554663195	0.099998952681
36	79448	15.369566615835	0.10001195264
36	80005	15.469565568466	0.099998952631
36	80562	15.569564521119	0.099998952653
36	81119	15.669563473821	0.099998952702
36	81676	15.769562426595	0.099998952774
36	82233	15.869561379457	0.099998952862
36	82790	15.969560332425	0.099998952968
36	83355	16.069559285511	0.099998953086
36	83912	16.169558238729	0.099998953218
36	84469	16.26955719209	0.099998953361
36	85026	16.369556145604	0.099998953514
36	85583	16.469555099279	0.099998953675
36	86140	16.569554053126	0.099998953847
36	86697	16.669566007151	0.100011954025
36	87254	16.769564961362	0.099998954211
36	87811	16.869563915765	0.099998954403
36	88368	16.969562870369	0.099998954604
36	88933	17.069561825176	0.099998954807
36	89490	17.169560780189	0.099998955013
36	90047	17.2695597354	0.099998955211
36	90604	17.369558690795	0.099998955395
36	91161	17.469557646352	0.099998955557
36	91718	17.569556602043	0.099998955691
36	92275	17.669555557833	0.09999895579
36	92832	17.769554513689	0.099998955856
36	93389	17.869566469571	0.100011955882
36	93946	17.969565425443	0.099998955872
36	94511	18.069564381279	0.099998955836
36	95068	18.169563337052	0.099998955773
36	95625	18.269562292743	0.099998955691
36	96182	18.369561248333	0.09999895559
36	96739	18.469560203805	0.099998955472
36	97296	18.569559159147	0.099998955342
36	97853	18.669558114345	0.099998955198
36	98410	18.76955706939	0.099998955045
36	98967	18.869556024274	0.099998954884
36	99524	18.969554978984	0.09999895471
36	100089	19.069566933514	0.10001195453
36	100646	19.169565887856	0.099998954342
36	101203	19.269564842005	0.099998954149
36	101760	19.369563795952	0.099998953947
36	102317	19.46956274969	0.099998953738
36	102874	19.569561703215	0.099998953525
36	103431	19.669560656527	0.099998953312
36	103988	19.769559609632	0.099998953105
36	104545	19.869558562545	0.099998952913
36	105102	19.969557515287	0.099998952742
36	105667	20.069556467887	0.0999989526
36	106224	20.169555420379	0.099998952492
36	106781	20.269554372799	0.09999895242
36	107338	20.369566325183	0.100011952384
36	107895	20.469565277566	0.099998952383
36	108452	20.56956422998	0.099998952414
36	109009	20.669563182447	0.099998952467
36	109566	20.769562134989	0.099998952542
36	110123	20.869561087627	0.099998952638
36	110680	20.969560040375	0.099998952748
36	111245	21.06955899325	0.099998952875
36	111802	21.169557946261	0.099998953011
36	112359	21.269556899419	0.099998953158
36	112916	21.369555852733	0.099998953314
36	113473	21.469554806214	0.099998953481
36	114030	21.56956675987	0.100011953656
36	114587	21.669565713709	0.099998953839
36	115144	21.769564667736	0.099998954027
36	115701	21.869563621962	0.099998954226
36	116258	21.96956257639	0.099998954428
36	116823	22.069561531028	0.099998954638
36	117380	22.169560485875	0.099998954847
36	117937	22.269559440924	0.099998955049
36	118494	22.369558396161	0.099998955237
36	119051	22.469557351564	0.099998955403
36	119608	22.569556307102	0.099998955538
36	120165	22.669555262748	0.099998955646
36	120722	22.769554218461	0.099998955713
36	121279	22.869566174204	0.100011955743
36	121836	22.969565129944	0.09999895574
36	122401	23.06956408565	0.099998955706
36	122958	23.169563041296	0.099998955646
36	123515	23.269561996864	0.099998955568
36	124072	23.369560952333	0.099998955469
36	124629	23.469559907688	0.099998955355
36	125186	23.569558862915	0.099998955227
36	125743	23.669557818002	0.099998955087
36	126300	23.76955677294	0.099998954938
36	126857	23.869555727717	0.099998954777
36	127414	23.969554682326	0.099998954609
36	127979	24.069566636756	0.10001195443
36	128536	24.169565591003	0.099998954247
36	129093	24.269564545054	0.099998954051
36	129650	24.369563498907	0.099998953853
36	130207	24.469562452553	0.099998953646
36	130764	24.56956140599	0.099998953437
36	131321	24.669560359216	0.099998953226
36	131878	24.769559312236	0.09999895302
36	132435	24.869558265068	0.099998952832
36	132992	24.969557217731	0.099998952663
36	133557	25.069556170253	0.099998952522
36	134114	25.169555122669	0.099998952416
36	134671	25.269554075015	0.099998952346
36	135228	25.369566027327	0.100011952312
36	135785	25.469564979641	0.099998952314
36	136342	25.569563931986	0.099998952345
36	136899	25.669562884389	0.099998952403
36	137456	25.76956183687	0.099998952481
36	138013	25.869560789447	0.099998952577
36	138570	25.969559742137	0.09999895269
36	139135	26.069558694952	0.099998952815
36	139692	26.169557647907	0.099998952955
36	140249	26.26955660101	0.099998953103
36	140806	26.369555554273	0.099998953263
36	141363	26.469554507702	0.099998953429
36	141920	26.569566461308	0.100011953606
36	142477	26.669565415098	0.09999895379
36	143034	26.769564369081	0.099998953983
36	143591	26.869563323261	0.09999895418
36	144148	26.969562277646	0.099998954385
36	144713	27.069561232239	0.099998954593
36	145270	27.169560187043	0.099998954804
36	145827	27.269559142049	0.099998955006
36	146384	27.369558097244	0.099998955195
36	146941	27.469557052606	0.099998955362
36	147498	27.569556008109	0.099998955503
36	148055	27.669554963718	0.099998955609
36	148612	27.769566919394	0.100011955676
36	149169	27.869565875103	0.099998955709
36	149726	27.969564830809	0.099998955706
36	150291	28.069563786483	0.099998955674
36	150848	28.169562742099	0.099998955616
36	151405	28.269561697635	0.099998955536
36	151962	28.369560653074	0.099998955439
36	152519	28.469559608401	0.099998955327
36	153076	28.569558563602	0.099998955201
36	153633	28.669557518663	0.099998955061
36	154190	28.769556473573	0.09999895491
36	154747	28.869555428325	0.099998954752
36	155304	28.969554382909	0.099998954584
36	155869	29.069566337315	0.100011954406
36	156426	29.169565291536	0.099998954221
36	156983	29.269564245566	0.09999895403
36	157540	29.369563199398	0.099998953832
36	158097	29.469562153022	0.099998953624
36	158654	29.569561106439	0.099998953417
36	159211	29.669560059644	0.099998953205
36	159768	29.769559012645	0.099998953001
36	160325	29.869557965456	0.099998952811
36	160882	29.9695569181	0.099998952644
36	161447	30.069555870606	0.099998952506
36	162004	30.169554823005	0.099998952399
36	162561	30.269566775335	0.10001195233
36	163118	30.369565727631	0.099998952296
36	163675	30.46956467993	0.099998952299
36	164232	30.569563632261	0.099998952331
36	164789	30.669562584651	0.09999895239
36	165346	30.769561537117	0.099998952466
36	165903	30.869560489682	0.099998952565
36	166460	30.969559442361	0.099998952679
36	167025	31.069558395165	0.099998952804
36	167582	31.169557348107	0.099998952942
36	168139	31.269556301199	0.099998953092
36	168696	31.369555254453	0.099998953254
36	169253	31.469554207872	0.099998953419
36	169810	31.569566161467	0.100011953595
36	170367	31.669565115248	0.099998953781
36	170924	31.769564069218	0.09999895397
36	171481	31.869563023387	0.099998954169
36	172038	31.969561977762	0.099998954375
36	172603	32.069560932347	0.099998954585
36	173160	32.169559887142	0.099998954795
36	173717	32.269558842137	0.099998954995
36	174274	32.369557797313	0.099998955176
36	174831	32.469556752635	0.099998955322
36	175388	32.569555708052	0.099998955417
36	175945	32.669554663494	0.099998955442
36	176502	32.769566618876	0.100011955382
36	177059	32.869565574096	0.09999895522
36	177616	32.969564529034	0.099998954938
36	178181	33.069563483562	0.099998954528
36	178738	33.169562437541	0.099998953979
36	179295	33.269561390825	0.099998953284
36	179852	33.369560343262	0.099998952437
36	180409	33.469559294696	0.099998951434
36	180966	33.569558244962	0.099998950266
36	181523	33.669557193894	0.099998948932
36	182080	33.769556141326	0.099998947432
36	182637	33.869555087084	0.099998945758
36	183194	33.969554030995	0.099998943911
36	183759	34.069565972882	0.100011941887
36	184316	34.16956491257	0.099998939688
36	184873	34.269563849878	0.099998937308
36	185430	34.36956278463	0.099998934752
36	185987	34.469561716644	0.099998932014
36	186544	34.56956064574	0.099998929096
36	187101	34.669559571744	0.099998926004
36	187658	34.769558494493	0.099998922749
36	188215	34.869557413834	0.099998919341
36	188772	34.969556329631	0.099998915797
36	189337	35.069555241762	0.099998912131
36	189894	35.169554150129	0.099998908367
36	190451	35.26956605465	0.100011904521
