file 960378 1501600219                                          
version 2
run SinusoidalJammingDetail-319-20170801-17:10:00-3117
attr CACCSpacing 5
attr attackAcc -30
attr attackPos 7
attr attackSpeed 150
attr attackStart 31.5
attr attacker 1
attr beaconInterval 0.1
attr configname SinusoidalJammingDetail
attr controller 1
attr datetime 20170801-17:10:00
attr experiment SinusoidalJammingDetail
attr fakeAcc "(1 == 4)"
attr fakePos "(1 == 2)"
attr fakeSpeed "(1 == 3)"
attr inifile omnetpp_319.ini
attr iterationvars "$leaderSpeed=100, $controller=1, $CACCSpacing=5, $sController=\"CACC\", $attacker=1, $attackStart=31.5, $attackSpeed=150, $attackPos=7, $attackAcc=-30, $0=5, $1=0, $nCars=8, $platoonSize=8, $nLanes=1, $beaconInterval=0.1, $priority=2, $packetSize=200, $ploegH=0.5, $leaderHeadway=1.2, $fakeSpeed=(1 == 3), $fakeAcc=(1 == 4), $fakePos=(1 == 2)"
attr iterationvarsf leaderSpeed=100,controller=1,CACCSpacing=5,sController=CACC,attacker=1,attackStart=31.5,attackSpeed=150,attackPos=7,attackAcc=-30,5,0,nCars=8,platoonSize=8,nLanes=1,beaconInterval=0.1,priority=2,packetSize=200,ploegH=0.5,leaderHeadway=1.2,fakeSpeed=(1_==_3),fakeAcc=(1_==_4),fakePos=(1_==_2)-
attr leaderHeadway 1.2
attr leaderSpeed 100
attr measurement "$leaderSpeed=100, $controller=1, $CACCSpacing=5, $sController=\"CACC\", $attacker=1, $attackStart=31.5, $attackSpeed=150, $attackPos=7, $attackAcc=-30, $0=5, $1=0, $nCars=8, $platoonSize=8, $nLanes=1, $beaconInterval=0.1, $priority=2, $packetSize=200, $ploegH=0.5, $leaderHeadway=1.2, $fakeSpeed=(1 == 3), $fakeAcc=(1 == 4), $fakePos=(1 == 2)"
attr nCars 8
attr nLanes 1
attr network scenario
attr packetSize 200
attr platoonSize 8
attr ploegH 0.5
attr priority 2
attr processid 3117
attr repetition 4
attr replication #4
attr resultdir results
attr runnumber 319
attr sController "\"CACC\""
attr seedset 4
param **.coreDebug false
param **.debug false
param **.headway 0.1s
param **.numberOfCars 8
param **.numberOfCarsPerPlatoon 8
param **.numberOfLanes 1
param **.numericController 1
param **.traffic.nCars 8
param **.traffic.nLanes 1
param **.traffic.platoonInsertDistance 5m
param **.traffic.platoonInsertHeadway 0s
param **.traffic.platoonInsertSpeed 100kmph
param **.traffic.platoonInsertTime "1 s"
param **.traffic.platoonLeaderHeadway 1.2s
param **.traffic.platoonSize 8
param **.traffic.platooningVType "\"vtypeauto\""
param **.traffic_type "\"PlatoonsTrafficManager\""
param *.**.nic.mac1609_4.bitrate 6Mbps
param *.**.nic.mac1609_4.txPower 100mW
param *.**.nic.mac1609_4.useServiceChannel false
param *.**.nic.phy80211p.analogueModels "xmldoc(\"config.xml\")"
param *.**.nic.phy80211p.decider "xmldoc(\"config.xml\")"
param *.**.nic.phy80211p.maxTXPower 100mW
param *.**.nic.phy80211p.sensitivity -94dBm
param *.**.nic.phy80211p.thermalNoise -95dBm
param *.**.nic.phy80211p.usePropagationDelay true
param *.**.nic.phy80211p.useThermalNoise true
param *.annotations.draw false
param *.connectionManager.alpha 2.0
param *.connectionManager.carrierFrequency "5.890e9 Hz"
param *.connectionManager.pMax 100mW
param *.connectionManager.sat -94dBm
param *.connectionManager.sendDirect true
param *.manager.autoShutdown true
param *.manager.commandLine "\"sumo --remote-port $port --seed $seed --configuration-file $configFile\""
param *.manager.configFile "\"./sumocfg/freeway.sumo.cfg\""
param *.manager.host "\"localhost\""
param *.manager.margin 25
param *.manager.moduleDisplayString "\"\""
param *.manager.moduleName "\"node\""
param *.manager.moduleType "\"Car\""
param *.manager.updateInterval 0.01s
param *.node[*].appl.attackStart 31.5s
param *.node[*].appl.attackerType 1
param *.node[*].appl.simulationDuration "60 s"
param *.node[*].appl_type "\"SimplePlatooningApp\""
param *.node[*].helper.nCars 8
param *.node[*].helper.nLanes 1
param *.node[*].helper.platoonSize 8
param *.node[*].helper_type "\"PositionHelper\""
param *.node[*].mobility.x 0
param *.node[*].mobility.y 0
param *.node[*].mobility.z 1.895
param *.node[*].prot.attackStart 31.5s
param *.node[*].prot.attackerType 1
param *.node[*].prot.attackingNode 3
param *.node[*].prot.beaconingInterval 0.1s
param *.node[*].prot.fakeAcc "(1 == 4)"
param *.node[*].prot.fakePos "(1 == 2)"
param *.node[*].prot.fakeSpeed "(1 == 3)"
param *.node[*].prot.maliciousAcc "-30 mpss"
param *.node[*].prot.maliciousSpeed 150kmph
param *.node[*].prot.packetSize 200
param *.node[*].prot.priority 2
param *.node[*].prot.shiftX "7 m"
param *.node[*].prot.useControllerAcceleration true
param *.node[*].protocol_type "\"SimplePlatooningBeaconing\""
param *.node[*].scenario.accHeadway 0.1s
param *.node[*].scenario.caccC1 0.5
param *.node[*].scenario.caccOmegaN "0.2 Hz"
param *.node[*].scenario.caccSpacing 5m
param *.node[*].scenario.caccXi 1
param *.node[*].scenario.controller "\"CACC\""
param *.node[*].scenario.engineTau "0.5 s"
param *.node[*].scenario.leaderHeadway 1.2s
param *.node[*].scenario.leaderOscillationFrequency "0.2 Hz"
param *.node[*].scenario.leaderSpeed 100kmph
param *.node[*].scenario.oscillationAmplitude "10 kmph"
param *.node[*].scenario.ploegH 0.5s
param *.node[*].scenario.ploegKd 0.7
param *.node[*].scenario.ploegKp 0.2
param *.node[*].scenario.startOscillating "5 s"
param *.node[*].scenario.useRealisticEngine false
param *.node[*].scenario_type "\"SinusoidalScenario\""
param *.node[*].unicast.packetLossRate 0
param *.obstacles.debug false
param *.playgroundSizeX 65000m
param *.playgroundSizeY 25000m
param *.playgroundSizeZ 50m
param *.world.use2D false
param *.world.useTorus false

vector 0  scenario.node[0].appl  distance  ETV
vector 1  scenario.node[0].appl  relativeSpeed  ETV
vector 2  scenario.node[0].appl  nodeId  ETV
vector 6  scenario.node[0].appl  acceleration  ETV
vector 7  scenario.node[0].appl  controllerAcceleration  ETV
vector 3  scenario.node[0].appl  speed  ETV
vector 4  scenario.node[0].appl  posx  ETV
vector 5  scenario.node[0].appl  posy  ETV
vector 22  scenario.node[1].appl  distance  ETV
vector 23  scenario.node[1].appl  relativeSpeed  ETV
vector 24  scenario.node[1].appl  nodeId  ETV
vector 28  scenario.node[1].appl  acceleration  ETV
vector 29  scenario.node[1].appl  controllerAcceleration  ETV
vector 25  scenario.node[1].appl  speed  ETV
vector 26  scenario.node[1].appl  posx  ETV
vector 27  scenario.node[1].appl  posy  ETV
vector 44  scenario.node[2].appl  distance  ETV
vector 45  scenario.node[2].appl  relativeSpeed  ETV
vector 46  scenario.node[2].appl  nodeId  ETV
vector 50  scenario.node[2].appl  acceleration  ETV
vector 51  scenario.node[2].appl  controllerAcceleration  ETV
vector 47  scenario.node[2].appl  speed  ETV
vector 48  scenario.node[2].appl  posx  ETV
vector 49  scenario.node[2].appl  posy  ETV
vector 66  scenario.node[3].appl  distance  ETV
vector 67  scenario.node[3].appl  relativeSpeed  ETV
vector 68  scenario.node[3].appl  nodeId  ETV
vector 72  scenario.node[3].appl  acceleration  ETV
vector 73  scenario.node[3].appl  controllerAcceleration  ETV
vector 69  scenario.node[3].appl  speed  ETV
vector 70  scenario.node[3].appl  posx  ETV
vector 71  scenario.node[3].appl  posy  ETV
vector 88  scenario.node[4].appl  distance  ETV
vector 89  scenario.node[4].appl  relativeSpeed  ETV
vector 90  scenario.node[4].appl  nodeId  ETV
vector 94  scenario.node[4].appl  acceleration  ETV
vector 95  scenario.node[4].appl  controllerAcceleration  ETV
vector 91  scenario.node[4].appl  speed  ETV
vector 92  scenario.node[4].appl  posx  ETV
vector 93  scenario.node[4].appl  posy  ETV
vector 110  scenario.node[5].appl  distance  ETV
vector 111  scenario.node[5].appl  relativeSpeed  ETV
vector 112  scenario.node[5].appl  nodeId  ETV
vector 116  scenario.node[5].appl  acceleration  ETV
vector 117  scenario.node[5].appl  controllerAcceleration  ETV
vector 113  scenario.node[5].appl  speed  ETV
vector 114  scenario.node[5].appl  posx  ETV
vector 115  scenario.node[5].appl  posy  ETV
vector 132  scenario.node[6].appl  distance  ETV
vector 133  scenario.node[6].appl  relativeSpeed  ETV
vector 134  scenario.node[6].appl  nodeId  ETV
vector 138  scenario.node[6].appl  acceleration  ETV
vector 139  scenario.node[6].appl  controllerAcceleration  ETV
vector 135  scenario.node[6].appl  speed  ETV
vector 136  scenario.node[6].appl  posx  ETV
vector 137  scenario.node[6].appl  posy  ETV
vector 154  scenario.node[7].appl  distance  ETV
vector 155  scenario.node[7].appl  relativeSpeed  ETV
vector 156  scenario.node[7].appl  nodeId  ETV
vector 160  scenario.node[7].appl  acceleration  ETV
vector 161  scenario.node[7].appl  controllerAcceleration  ETV
vector 157  scenario.node[7].appl  speed  ETV
vector 158  scenario.node[7].appl  posx  ETV
vector 159  scenario.node[7].appl  posy  ETV
vector 102  scenario.node[4].prot  frontDelay  ETV
vector 100  scenario.node[4].prot  frontDelayId  ETV
vector 35  scenario.node[1].prot  leaderDelay  ETV
vector 33  scenario.node[1].prot  leaderDelayId  ETV
vector 36  scenario.node[1].prot  frontDelay  ETV
vector 34  scenario.node[1].prot  frontDelayId  ETV
vector 57  scenario.node[2].prot  leaderDelay  ETV
vector 55  scenario.node[2].prot  leaderDelayId  ETV
vector 79  scenario.node[3].prot  leaderDelay  ETV
vector 77  scenario.node[3].prot  leaderDelayId  ETV
vector 101  scenario.node[4].prot  leaderDelay  ETV
vector 99  scenario.node[4].prot  leaderDelayId  ETV
vector 123  scenario.node[5].prot  leaderDelay  ETV
vector 121  scenario.node[5].prot  leaderDelayId  ETV
vector 145  scenario.node[6].prot  leaderDelay  ETV
vector 143  scenario.node[6].prot  leaderDelayId  ETV
vector 167  scenario.node[7].prot  leaderDelay  ETV
vector 165  scenario.node[7].prot  leaderDelayId  ETV
vector 80  scenario.node[3].prot  frontDelay  ETV
vector 78  scenario.node[3].prot  frontDelayId  ETV
vector 146  scenario.node[6].prot  frontDelay  ETV
vector 144  scenario.node[6].prot  frontDelayId  ETV
vector 58  scenario.node[2].prot  frontDelay  ETV
vector 56  scenario.node[2].prot  frontDelayId  ETV
vector 124  scenario.node[5].prot  frontDelay  ETV
vector 122  scenario.node[5].prot  frontDelayId  ETV
vector 168  scenario.node[7].prot  frontDelay  ETV
vector 166  scenario.node[7].prot  frontDelayId  ETV
vector 8  scenario.node[0].prot  nodeId  ETV
vector 9  scenario.node[0].prot  busyTime  ETV
vector 10  scenario.node[0].prot  collisions  ETV
vector 30  scenario.node[1].prot  nodeId  ETV
vector 31  scenario.node[1].prot  busyTime  ETV
vector 32  scenario.node[1].prot  collisions  ETV
vector 52  scenario.node[2].prot  nodeId  ETV
vector 53  scenario.node[2].prot  busyTime  ETV
vector 54  scenario.node[2].prot  collisions  ETV
vector 74  scenario.node[3].prot  nodeId  ETV
vector 75  scenario.node[3].prot  busyTime  ETV
vector 76  scenario.node[3].prot  collisions  ETV
vector 96  scenario.node[4].prot  nodeId  ETV
vector 97  scenario.node[4].prot  busyTime  ETV
vector 98  scenario.node[4].prot  collisions  ETV
vector 118  scenario.node[5].prot  nodeId  ETV
vector 119  scenario.node[5].prot  busyTime  ETV
vector 120  scenario.node[5].prot  collisions  ETV
vector 140  scenario.node[6].prot  nodeId  ETV
vector 141  scenario.node[6].prot  busyTime  ETV
vector 142  scenario.node[6].prot  collisions  ETV
vector 162  scenario.node[7].prot  nodeId  ETV
vector 163  scenario.node[7].prot  busyTime  ETV
vector 164  scenario.node[7].prot  collisions  ETV
7	11242 8055 232 188167 1.11 34.81 338 -1.5 1.5 -15.315255284342 536.99541525525
6	19297 10617 232 188167 1.11 34.81 338 -1.4722746794938 1.451340770512 -11.875210233531 365.91846440919
5	29914 6810 232 188167 1.11 34.81 338 36.55 36.55 12353.9 451535.045
4	36724 10162 232 188167 1.11 34.81 338 112.05297775242 1052.6001688014 197163.82218831 140045792.32629
3	46886 10154 232 188167 1.11 34.81 338 26.488037261118 29.742492528104 9432.8401463702 263496.56271959
1	57040 5458 232 188167 1.11 34.81 338 0 0 0 0
0	62498 5796 232 188167 1.11 34.81 338 -1 -1 -338 338
2	68294 5458 232 188167 1.11 34.81 338 0 0 0 0
10	73752 469 5234 183700 2 34 33 0 0 0 0
9	74221 635 5234 183700 2 34 33 0.023625 0.02625 0.863625 0.022608140625
8	74856 436 5234 183700 2 34 33 0 0 0 0
51	75292 10873 234 188169 1.11 34.81 338 -1.5169291874388 1.5151528893525 36.401343307148 511.81845672935
50	86165 10927 234 188169 1.11 34.81 338 -1.474469214601 1.4486483627909 33.659191368173 354.62333905746
49	97092 7148 234 188169 1.11 34.81 338 36.55 36.55 12353.9 451535.045
48	104240 10486 234 188169 1.11 34.81 338 94.052977752686 1039.6477426275 191119.84032429 133139934.2222
47	114726 10490 234 188169 1.11 34.81 338 26.489807071192 31.120770693304 9484.8995492559 266526.44811394
45	125216 11562 234 188169 1.11 34.81 338 -0.37952011093395 0.016164858544286 -4.1110974877698 1.044088141646
44	136778 10469 234 188169 1.11 34.81 338 4.6395606673176 5.0430601385272 1687.1917454262 8422.5942241409
46	147247 5796 234 188169 1.11 34.81 338 2 2 676 1352
58	153043 13479 1176 188555 1.28193217081 34.881936757976 337 0.099998618769 0.100011662521 33.700003247623 3.370000654825
57	166522 13467 970 188349 1.241822930644 34.841827522438 337 0.099998622986 0.100011662495 33.700003252251 3.3700006557503
56	179989 9126 1176 188555 1.28193217081 34.881936757976 337 2 2 674 1348
55	189115 9113 970 188349 1.241822930644 34.841827522438 337 2 2 674 1348
54	198228 469 5236 183702 2 34 33 0 0 0 0
53	198697 668 5236 183702 2 34 33 0.023625 0.02625 0.863625 0.022608140625
52	199365 469 5236 183702 2 34 33 2 2 66 132
73	199834 10874 235 188170 1.11 34.81 338 -1.4985212089264 1.4980940713731 39.000183922265 504.25579215561
72	210708 10936 235 188170 1.11 34.81 338 -1.4637937971386 1.4376572545228 35.733889730746 353.27430144439
71	221644 7148 235 188170 1.11 34.81 338 36.55 36.55 12353.9 451535.045
70	228792 10496 235 188170 1.11 34.81 338 85.052977752686 1030.8178546578 188079.0614813 129730421.21716
69	239288 10490 235 188170 1.11 34.81 338 26.49929006903 31.321148462655 9486.6720403696 266632.6597616
67	249778 11651 235 188170 1.11 34.81 338 -0.2054091484219 0.013757099034954 -2.1090830273492 0.28411405971068
66	261429 10493 235 188170 1.11 34.81 338 4.8338955251253 5.0387417848268 1688.8142928101 8438.322617442
68	271922 5796 235 188170 1.11 34.81 338 3 3 1014 3042
80	277718 13465 1040 188419 1.262749960665 34.862754551857 337 0.099998619199 0.100011662364 33.700003251649 3.3700006556306
79	291183 13468 976 188355 1.241822960664 34.841827551871 337 0.099998622925 0.100011662496 33.700003251664 3.3700006556329
78	304651 9114 1040 188419 1.262749960665 34.862754551857 337 3 3 1011 3033
77	313765 9117 976 188355 1.241822960664 34.841827551871 337 3 3 1011 3033
76	322882 469 5237 183703 2 34 33 0 0 0 0
75	323351 668 5237 183703 2 34 33 0.023625 0.02625 0.863625 0.022608140625
74	324019 469 5237 183703 2 34 33 3 3 99 297
95	324488 10854 236 188171 1.11 34.81 338 -1.4920639078548 1.492297991817 40.225047285655 498.97029811253
94	335342 10925 236 188171 1.11 34.81 338 -1.4606979511044 1.4336101310143 36.764819015963 353.87356626687
93	346267 7148 236 188171 1.11 34.81 338 36.55 36.55 12353.9 451535.045
92	353415 10488 236 188171 1.11 34.81 338 76.052977752686 1021.8421627002 185036.52097407 126372314.0363
91	363903 10496 236 188171 1.11 34.81 338 26.503753956142 31.420268924422 9486.9507291188 266650.89688596
89	374399 11458 236 188171 1.11 34.81 338 -0.10551888062361 0.025327724852623 -0.63602764648572 0.15590900604754
88	385857 10477 236 188171 1.11 34.81 338 4.9580811516836 5.0545016922784 1690.5460810038 8455.6647378417
90	396334 5796 236 188171 1.11 34.81 338 4 4 1352 5408
102	402130 13799 904 188283 1.240525810561 34.840530437432 337 0.09999862229 0.100011662399 33.700003287328 3.3700006627665
101	415929 13820 982 188361 1.241822990685 34.8418275818 337 0.099998622894 0.100011662493 33.700003251572 3.3700006556145
100	429749 9456 904 188283 1.240525810561 34.840530437432 337 4 4 1348 5392
99	439205 9123 982 188361 1.241822990685 34.8418275818 337 4 4 1348 5392
98	448328 469 5238 183704 2 34 33 0 0 0 0
97	448797 668 5238 183704 2 34 33 0.023625 0.02625 0.863625 0.022608140625
96	449465 469 5238 183704 2 34 33 4 4 132 528
117	449934 11207 237 188172 1.11 34.81 338 -1.4980277570429 1.4988827604699 41.59896769491 507.5706308368
116	461141 11256 237 188172 1.11 34.81 338 -1.453940271638 1.4285447656441 37.36073296892 352.81454503372
115	472397 7486 237 188172 1.11 34.81 338 36.55 36.55 12353.9 451535.045
114	479883 10826 237 188172 1.11 34.81 338 67.052977752686 1012.9318581513 181995.54025032 123071537.96976
113	490709 10830 237 188172 1.11 34.81 338 26.506799901103 31.47894524903 9487.8681839471 266704.55406394
111	501539 11806 237 188172 1.11 34.81 338 -0.065940436602258 0.035220619226141 -1.2851030184774 0.22319272172599
110	513345 10817 237 188172 1.11 34.81 338 4.9114780753519 5.0290410940187 1688.9990728468 8440.1043281355
112	524162 6134 237 188172 1.11 34.81 338 5 5 1690 8450
124	530296 13798 1242 188615 1.287402260872 34.887393847003 337 0.099998618646 0.100011662332 33.700003246588 3.3700006546186
123	544094 13812 988 188367 1.241823020706 34.841827611516 337 0.099998622876 0.100011662497 33.700003251267 3.3700006555535
122	557906 9450 1242 188615 1.287402260872 34.887393847003 337 5 5 1685 8425
121	567356 9464 988 188367 1.241823020706 34.841827611516 337 5 5 1685 8425
120	576820 502 5239 183705 2 34 33 0 0 0 0
119	577322 701 5239 183705 2 34 33 0.023625 0.02625 0.863625 0.022608140625
118	578023 502 5239 183705 2 34 33 5 5 165 825
139	578525 11206 238 188173 1.11 34.81 338 -1.488961769576 1.4892820935974 41.718848032709 498.41201284451
138	589731 11257 238 188173 1.11 34.81 338 -1.4484613577004 1.423468459711 37.632788268292 350.32511421188
137	600988 7486 238 188173 1.11 34.81 338 36.55 36.55 12353.9 451535.045
136	608474 10832 238 188173 1.11 34.81 338 58.052977752686 1003.9576723235 178953.63562908 119823905.31542
135	619306 10827 238 188173 1.11 34.81 338 26.513052660566 31.503859875169 9488.1354311938 266718.59909088
133	630133 11839 238 188173 1.11 34.81 338 -0.032594382133855 0.019374224362203 -0.64085457642051 0.062395883895678
132	641972 10812 238 188173 1.11 34.81 338 4.9746841203544 5.0150693530404 1689.9099661825 8449.1162692654
134	652784 6134 238 188173 1.11 34.81 338 6 6 2028 12168
146	658918 13807 1106 188485 1.266712050727 34.866716641421 337 0.099998622867 0.1000116625 33.700003251151 3.3700006555303
145	672725 13805 994 188373 1.241823050727 34.841827641448 337 0.099998622869 0.100011662499 33.700003251178 3.3700006555357
144	686530 9462 1106 188485 1.266712050727 34.866716641421 337 6 6 2022 12132
143	695992 9456 994 188373 1.241823050727 34.841827641448 337 6 6 2022 12132
142	705448 502 5240 183706 2 34 33 0 0 0 0
141	705950 701 5240 183706 2 34 33 0.023625 0.02625 0.863625 0.022608140625
140	706651 502 5240 183706 2 34 33 6 6 198 1188
161	707153 11208 239 188174 1.11 34.81 338 -1.496353420782 1.4966188714923 42.35538340001 508.57959304197
160	718361 11255 239 188174 1.11 34.81 338 -1.451779337739 1.4279262018306 37.905958721457 353.79506302903
159	729616 7486 239 188174 1.11 34.81 338 36.55 36.55 12353.9 451535.045
158	737102 10833 239 188174 1.11 34.81 338 49.052977752686 995.02132067241 175912.17284334 116631408.57038
157	747935 10833 239 188174 1.11 34.81 338 26.506298829227 31.531811322214 9488.7816026569 266759.20492758
155	758768 11793 239 188174 1.11 34.81 338 -0.035891424525058 0.034536355439467 -1.0224993457182 0.16466144809056
154	770561 10818 239 188174 1.11 34.81 338 4.9369106800015 5.0229359302052 1689.4757091724 8444.8293843529
156	781379 6134 239 188174 1.11 34.81 338 7 7 2366 16562
168	787513 13807 1308 188681 1.289466320914 34.889470906734 337 0.099998618628 0.100011662511 33.700003246277 3.3700006545559
167	801320 13785 1000 188379 1.241823080747 34.841827671253 337 0.09999862286 0.100011662501 33.700003250963 3.3700006554927
166	815105 9454 1308 188681 1.289466320914 34.889470906734 337 7 7 2359 16513
165	824559 9447 1000 188379 1.241823080747 34.841827671253 337 7 7 2359 16513
164	834006 502 5241 183707 2 34 33 0 0 0 0
163	834508 701 5241 183707 2 34 33 0.023625 0.02625 0.863625 0.022608140625
162	835209 502 5241 183707 2 34 33 7 7 231 1617
22	835711 10515 233 188719 1.11 34.89 339 0 5.0934695529853 1653.8313066566 8191.9916888626
23	846226 11451 233 188719 1.11 34.89 339 -4.2016816601178 0.078120772564848 -52.329245753942 156.76718252506
24	857677 5814 233 188719 1.11 34.89 339 1 1 339 339
25	863491 10512 233 188719 1.11 34.89 339 26.48728580314 30.765991412735 9511.8524539791 267240.85112963
26	874003 10531 233 188719 1.11 34.89 339 103.05297775269 1050.7405160684 195209.69632405 137705064.88683
27	884534 7170 233 188719 1.11 34.89 339 36.55 36.55 12390.45 452870.9475
28	891704 10962 233 188719 1.11 34.89 339 -1.4807765622834 1.4557932513856 30.060475669735 350.91753227783
29	902666 10916 233 188719 1.11 34.89 339 -1.5034793944864 1.5024511423159 31.186947537665 499.80862383736
30	913582 469 5235 183701 2 34 33 1 1 33 33
31	914051 668 5235 183701 2 34 33 0.023625 0.02625 0.863625 0.022608140625
32	914719 469 5235 183701 2 34 33 0 0 0 0
33	915188 9124 964 188343 1.241822900623 34.841827493683 337 1 1 337 337
34	924312 9124 964 188343 1.241822900623 34.841827493683 337 1 1 337 337
35	933436 13471 964 188343 1.241822900623 34.841827493683 337 0.099998623105 0.100011662497 33.700003253517 3.3700006560035
36	946907 13471 964 188343 1.241822900623 34.841827493683 337 0.099998623105 0.100011662497 33.700003253517 3.3700006560035
