version 2
run SinusoidalJammingDetail-719-20170802-14:41:28-88307
attr CACCSpacing 20
attr attackAcc -30
attr attackPos 7
attr attackSpeed 150
attr attackStart 32.5
attr attacker 1
attr beaconInterval 0.1
attr configname SinusoidalJammingDetail
attr controller 1
attr datetime 20170802-14:41:28
attr experiment SinusoidalJammingDetail
attr fakeAcc "(1 == 4)"
attr fakePos "(1 == 2)"
attr fakeSpeed "(1 == 3)"
attr inifile omnetpp_719.ini
attr iterationvars "$leaderSpeed=120, $controller=1, $CACCSpacing=20, $sController=\"CACC\", $attacker=1, $attackStart=32.5, $attackSpeed=150, $attackPos=7, $attackAcc=-30, $0=20, $1=0, $nCars=8, $platoonSize=8, $nLanes=1, $beaconInterval=0.1, $priority=2, $packetSize=200, $ploegH=0.5, $leaderHeadway=1.2, $fakeSpeed=(1 == 3), $fakeAcc=(1 == 4), $fakePos=(1 == 2)"
attr iterationvarsf leaderSpeed=120,controller=1,CACCSpacing=20,sController=CACC,attacker=1,attackStart=32.5,attackSpeed=150,attackPos=7,attackAcc=-30,20,0,nCars=8,platoonSize=8,nLanes=1,beaconInterval=0.1,priority=2,packetSize=200,ploegH=0.5,leaderHeadway=1.2,fakeSpeed=(1_==_3),fakeAcc=(1_==_4),fakePos=(1_==_2)-
attr leaderHeadway 1.2
attr leaderSpeed 120
attr measurement "$leaderSpeed=120, $controller=1, $CACCSpacing=20, $sController=\"CACC\", $attacker=1, $attackStart=32.5, $attackSpeed=150, $attackPos=7, $attackAcc=-30, $0=20, $1=0, $nCars=8, $platoonSize=8, $nLanes=1, $beaconInterval=0.1, $priority=2, $packetSize=200, $ploegH=0.5, $leaderHeadway=1.2, $fakeSpeed=(1 == 3), $fakeAcc=(1 == 4), $fakePos=(1 == 2)"
attr nCars 8
attr nLanes 1
attr network scenario
attr packetSize 200
attr platoonSize 8
attr ploegH 0.5
attr priority 2
attr processid 88307
attr repetition 4
attr replication #4
attr resultdir results
attr runnumber 719
attr sController "\"CACC\""
attr seedset 4
param **.coreDebug false
param **.debug false
param **.headway 0.1s
param **.numberOfCars 8
param **.numberOfCarsPerPlatoon 8
param **.numberOfLanes 1
param **.numericController 1
param **.traffic.nCars 8
param **.traffic.nLanes 1
param **.traffic.platoonInsertDistance 20m
param **.traffic.platoonInsertHeadway 0s
param **.traffic.platoonInsertSpeed 120kmph
param **.traffic.platoonInsertTime "1 s"
param **.traffic.platoonLeaderHeadway 1.2s
param **.traffic.platoonSize 8
param **.traffic.platooningVType "\"vtypeauto\""
param **.traffic_type "\"PlatoonsTrafficManager\""
param *.**.nic.mac1609_4.bitrate 6Mbps
param *.**.nic.mac1609_4.txPower 100mW
param *.**.nic.mac1609_4.useServiceChannel false
param *.**.nic.phy80211p.analogueModels "xmldoc(\"config.xml\")"
param *.**.nic.phy80211p.decider "xmldoc(\"config.xml\")"
param *.**.nic.phy80211p.maxTXPower 100mW
param *.**.nic.phy80211p.sensitivity -94dBm
param *.**.nic.phy80211p.thermalNoise -95dBm
param *.**.nic.phy80211p.usePropagationDelay true
param *.**.nic.phy80211p.useThermalNoise true
param *.annotations.draw false
param *.connectionManager.alpha 2.0
param *.connectionManager.carrierFrequency "5.890e9 Hz"
param *.connectionManager.pMax 100mW
param *.connectionManager.sat -94dBm
param *.connectionManager.sendDirect true
param *.manager.autoShutdown true
param *.manager.commandLine "\"sumo --remote-port $port --seed $seed --configuration-file $configFile\""
param *.manager.configFile "\"./sumocfg/freeway.sumo.cfg\""
param *.manager.host "\"localhost\""
param *.manager.margin 25
param *.manager.moduleDisplayString "\"\""
param *.manager.moduleName "\"node\""
param *.manager.moduleType "\"Car\""
param *.manager.updateInterval 0.01s
param *.node[*].appl.attackStart 32.5s
param *.node[*].appl.attackerType 1
param *.node[*].appl.simulationDuration "60 s"
param *.node[*].appl_type "\"SimplePlatooningApp\""
param *.node[*].helper.nCars 8
param *.node[*].helper.nLanes 1
param *.node[*].helper.platoonSize 8
param *.node[*].helper_type "\"PositionHelper\""
param *.node[*].mobility.x 0
param *.node[*].mobility.y 0
param *.node[*].mobility.z 1.895
param *.node[*].prot.attackStart 32.5s
param *.node[*].prot.attackerType 1
param *.node[*].prot.attackingNode 3
param *.node[*].prot.beaconingInterval 0.1s
param *.node[*].prot.fakeAcc "(1 == 4)"
param *.node[*].prot.fakePos "(1 == 2)"
param *.node[*].prot.fakeSpeed "(1 == 3)"
param *.node[*].prot.maliciousAcc "-30 mpss"
param *.node[*].prot.maliciousSpeed 150kmph
param *.node[*].prot.packetSize 200
param *.node[*].prot.priority 2
param *.node[*].prot.shiftX "7 m"
param *.node[*].prot.useControllerAcceleration true
param *.node[*].protocol_type "\"SimplePlatooningBeaconing\""
param *.node[*].scenario.accHeadway 0.1s
param *.node[*].scenario.caccC1 0.5
param *.node[*].scenario.caccOmegaN "0.2 Hz"
param *.node[*].scenario.caccSpacing 20m
param *.node[*].scenario.caccXi 1
param *.node[*].scenario.controller "\"CACC\""
param *.node[*].scenario.engineTau "0.5 s"
param *.node[*].scenario.leaderHeadway 1.2s
param *.node[*].scenario.leaderOscillationFrequency "0.2 Hz"
param *.node[*].scenario.leaderSpeed 120kmph
param *.node[*].scenario.oscillationAmplitude "10 kmph"
param *.node[*].scenario.ploegH 0.5s
param *.node[*].scenario.ploegKd 0.7
param *.node[*].scenario.ploegKp 0.2
param *.node[*].scenario.startOscillating "5 s"
param *.node[*].scenario.useRealisticEngine false
param *.node[*].scenario_type "\"SinusoidalScenario\""
param *.node[*].unicast.packetLossRate 0
param *.obstacles.debug false
param *.playgroundSizeX 65000m
param *.playgroundSizeY 25000m
param *.playgroundSizeZ 50m
param *.world.use2D false
param *.world.useTorus false

vector 0  scenario.node[0].appl  distance  ETV
vector 1  scenario.node[0].appl  relativeSpeed  ETV
vector 2  scenario.node[0].appl  nodeId  ETV
vector 6  scenario.node[0].appl  acceleration  ETV
vector 7  scenario.node[0].appl  controllerAcceleration  ETV
vector 3  scenario.node[0].appl  speed  ETV
vector 4  scenario.node[0].appl  posx  ETV
vector 5  scenario.node[0].appl  posy  ETV
vector 22  scenario.node[1].appl  distance  ETV
vector 23  scenario.node[1].appl  relativeSpeed  ETV
vector 24  scenario.node[1].appl  nodeId  ETV
vector 28  scenario.node[1].appl  acceleration  ETV
vector 29  scenario.node[1].appl  controllerAcceleration  ETV
vector 25  scenario.node[1].appl  speed  ETV
vector 26  scenario.node[1].appl  posx  ETV
vector 27  scenario.node[1].appl  posy  ETV
vector 44  scenario.node[2].appl  distance  ETV
vector 45  scenario.node[2].appl  relativeSpeed  ETV
vector 46  scenario.node[2].appl  nodeId  ETV
vector 50  scenario.node[2].appl  acceleration  ETV
vector 51  scenario.node[2].appl  controllerAcceleration  ETV
vector 47  scenario.node[2].appl  speed  ETV
vector 48  scenario.node[2].appl  posx  ETV
vector 49  scenario.node[2].appl  posy  ETV
vector 66  scenario.node[3].appl  distance  ETV
vector 67  scenario.node[3].appl  relativeSpeed  ETV
vector 68  scenario.node[3].appl  nodeId  ETV
vector 72  scenario.node[3].appl  acceleration  ETV
vector 73  scenario.node[3].appl  controllerAcceleration  ETV
vector 69  scenario.node[3].appl  speed  ETV
vector 70  scenario.node[3].appl  posx  ETV
vector 71  scenario.node[3].appl  posy  ETV
vector 88  scenario.node[4].appl  distance  ETV
vector 89  scenario.node[4].appl  relativeSpeed  ETV
vector 90  scenario.node[4].appl  nodeId  ETV
vector 94  scenario.node[4].appl  acceleration  ETV
vector 95  scenario.node[4].appl  controllerAcceleration  ETV
vector 91  scenario.node[4].appl  speed  ETV
vector 92  scenario.node[4].appl  posx  ETV
vector 93  scenario.node[4].appl  posy  ETV
vector 110  scenario.node[5].appl  distance  ETV
vector 111  scenario.node[5].appl  relativeSpeed  ETV
vector 112  scenario.node[5].appl  nodeId  ETV
vector 116  scenario.node[5].appl  acceleration  ETV
vector 117  scenario.node[5].appl  controllerAcceleration  ETV
vector 113  scenario.node[5].appl  speed  ETV
vector 114  scenario.node[5].appl  posx  ETV
vector 115  scenario.node[5].appl  posy  ETV
vector 132  scenario.node[6].appl  distance  ETV
vector 133  scenario.node[6].appl  relativeSpeed  ETV
vector 134  scenario.node[6].appl  nodeId  ETV
vector 138  scenario.node[6].appl  acceleration  ETV
vector 139  scenario.node[6].appl  controllerAcceleration  ETV
vector 135  scenario.node[6].appl  speed  ETV
vector 136  scenario.node[6].appl  posx  ETV
vector 137  scenario.node[6].appl  posy  ETV
vector 154  scenario.node[7].appl  distance  ETV
vector 155  scenario.node[7].appl  relativeSpeed  ETV
vector 156  scenario.node[7].appl  nodeId  ETV
vector 160  scenario.node[7].appl  acceleration  ETV
vector 161  scenario.node[7].appl  controllerAcceleration  ETV
vector 157  scenario.node[7].appl  speed  ETV
vector 158  scenario.node[7].appl  posx  ETV
vector 159  scenario.node[7].appl  posy  ETV
vector 102  scenario.node[4].prot  frontDelay  ETV
vector 100  scenario.node[4].prot  frontDelayId  ETV
vector 35  scenario.node[1].prot  leaderDelay  ETV
vector 33  scenario.node[1].prot  leaderDelayId  ETV
vector 36  scenario.node[1].prot  frontDelay  ETV
vector 34  scenario.node[1].prot  frontDelayId  ETV
vector 57  scenario.node[2].prot  leaderDelay  ETV
vector 55  scenario.node[2].prot  leaderDelayId  ETV
vector 79  scenario.node[3].prot  leaderDelay  ETV
vector 77  scenario.node[3].prot  leaderDelayId  ETV
vector 101  scenario.node[4].prot  leaderDelay  ETV
vector 99  scenario.node[4].prot  leaderDelayId  ETV
vector 123  scenario.node[5].prot  leaderDelay  ETV
vector 121  scenario.node[5].prot  leaderDelayId  ETV
vector 145  scenario.node[6].prot  leaderDelay  ETV
vector 143  scenario.node[6].prot  leaderDelayId  ETV
vector 167  scenario.node[7].prot  leaderDelay  ETV
vector 165  scenario.node[7].prot  leaderDelayId  ETV
vector 80  scenario.node[3].prot  frontDelay  ETV
vector 78  scenario.node[3].prot  frontDelayId  ETV
vector 146  scenario.node[6].prot  frontDelay  ETV
vector 144  scenario.node[6].prot  frontDelayId  ETV
vector 58  scenario.node[2].prot  frontDelay  ETV
vector 56  scenario.node[2].prot  frontDelayId  ETV
vector 124  scenario.node[5].prot  frontDelay  ETV
vector 122  scenario.node[5].prot  frontDelayId  ETV
vector 168  scenario.node[7].prot  frontDelay  ETV
vector 166  scenario.node[7].prot  frontDelayId  ETV
vector 8  scenario.node[0].prot  nodeId  ETV
vector 9  scenario.node[0].prot  busyTime  ETV
vector 10  scenario.node[0].prot  collisions  ETV
vector 30  scenario.node[1].prot  nodeId  ETV
vector 31  scenario.node[1].prot  busyTime  ETV
vector 32  scenario.node[1].prot  collisions  ETV
vector 52  scenario.node[2].prot  nodeId  ETV
vector 53  scenario.node[2].prot  busyTime  ETV
vector 54  scenario.node[2].prot  collisions  ETV
vector 74  scenario.node[3].prot  nodeId  ETV
vector 75  scenario.node[3].prot  busyTime  ETV
vector 76  scenario.node[3].prot  collisions  ETV
vector 96  scenario.node[4].prot  nodeId  ETV
vector 97  scenario.node[4].prot  busyTime  ETV
vector 98  scenario.node[4].prot  collisions  ETV
vector 118  scenario.node[5].prot  nodeId  ETV
vector 119  scenario.node[5].prot  busyTime  ETV
vector 120  scenario.node[5].prot  collisions  ETV
vector 140  scenario.node[6].prot  nodeId  ETV
vector 141  scenario.node[6].prot  busyTime  ETV
vector 142  scenario.node[6].prot  collisions  ETV
vector 162  scenario.node[7].prot  nodeId  ETV
vector 163  scenario.node[7].prot  busyTime  ETV
vector 164  scenario.node[7].prot  collisions  ETV
7	232	1.11	1.264609664986e-06
7	788	1.21	1.2370558053476e-06
7	1344	1.31	1.1922643139428e-06
7	1900	1.41	1.1341353030048e-06
7	2456	1.51	1.0661075364737e-06
7	3012	1.61	9.9117950469463e-07
7	3568	1.71	9.1193474816009e-07
7	4124	1.81	8.3057002342457e-07
7	4680	1.91	7.4892560064654e-07
7	5244	2.01	6.6851609403784e-07
7	5800	2.11	5.9056183232542e-07
7	6356	2.21	5.1602003736662e-07
7	6912	2.31	4.4561458878434e-07
7	7468	2.41	3.7986517753552e-07
7	8024	2.51	3.1911461206846e-07
7	8580	2.61	2.6355444049386e-07
7	9136	2.71	2.1324864718508e-07
7	9692	2.81	1.6815555881067e-07
7	10248	2.91	1.2814749794643e-07
7	10812	3.01	9.3028553749264e-08
7	11368	3.11	6.255026363533e-08
7	11924	3.21	3.6425589655664e-08
7	12480	3.31	1.4340962195547e-08
7	13036	3.41	-4.0332679418498e-09
7	13592	3.51	-1.9034231968362e-08
7	14148	3.61	-3.0998883460143e-08
7	14704	3.71	-4.0258086642098e-08
7	15260	3.81	-4.7131671010447e-08
7	15816	3.91	-5.1925063360159e-08
7	16380	4.01	-5.4926061920924e-08
7	16936	4.11	-5.6402775783226e-08
7	17492	4.21	-5.6602530662531e-08
7	18048	4.31	-5.5751151251116e-08
7	18604	4.41	-5.4052726738973e-08
7	19160	4.51	-5.1689909241759e-08
7	19716	4.61	-4.8824482234977e-08
7	20272	4.71	-4.5598198994412e-08
7	20828	4.81	-4.2133798672239e-08
7	21384	4.91	-3.8536192903393e-08
7	21949	5.01	-3.4893794520485e-08
7	22506	5.11	0.34814783973202
7	23063	5.21	0.68726932535991
7	23620	5.31	1.0064705905053
7	24177	5.41	1.2963311346507
7	24734	5.51	1.5
7	25291	5.61	1.5
7	25848	5.71	1.5
7	26405	5.81	1.5
7	26962	5.91	1.5
7	27527	6.01	1.5
7	28084	6.11	1.5
7	28641	6.21	1.5
7	29198	6.31	1.5
7	29755	6.41	1.5
7	30312	6.51	1.4919234058593
7	30869	6.61	1.2264993209595
7	31426	6.71	0.92305383326438
7	31983	6.81	0.5890810138258
7	32540	6.91	0.23235621116515
7	33105	7.01	-0.13919560237429
7	33662	7.11	-0.51762846938546
7	34219	7.21	-0.89509994250727
7	34776	7.31	-1.2639902910536
7	35333	7.41	-1.5
7	35890	7.51	-1.5
7	36447	7.61	-1.5
7	37004	7.71	-1.5
7	37561	7.81	-1.5
7	38118	7.91	-1.5
7	38683	8.01	-1.5
7	39240	8.11	-1.5
7	39797	8.21	-1.5
7	40354	8.31	-1.5
7	40911	8.41	-1.5
7	41468	8.51	-1.5
7	42025	8.61	-1.5
7	42582	8.71	-1.5
7	43139	8.81	-1.5
7	43696	8.91	-1.5
7	44261	9.01	-1.5
7	44818	9.11	-1.5
7	45375	9.21	-1.5
7	45932	9.31	-1.5
7	46489	9.41	-1.5
7	47046	9.51	-1.178453590773
7	47603	9.61	-0.73985166452546
7	48160	9.71	-0.29046662090423
7	48717	9.81	0.15868205640434
7	49274	9.91	0.59737147663756
7	49839	10.01	1.0162504339375
7	50396	10.11	1.4069035496629
7	50953	10.21	1.5
7	51510	10.31	1.5
7	52067	10.41	1.5
7	52624	10.51	1.5
7	53181	10.61	1.5
7	53738	10.71	1.5
7	54295	10.81	1.5
7	54852	10.91	1.5
7	55417	11.01	1.5
7	55974	11.11	1.5
7	56531	11.21	1.5
7	57088	11.31	1.5
7	57645	11.41	1.5
7	58202	11.51	1.5
7	58759	11.61	1.5
7	59316	11.71	1.5
7	59873	11.81	1.5
7	60430	11.91	1.1420569522446
7	60995	12.01	0.73271074165216
7	61552	12.11	0.30763491694659
7	62109	12.21	-0.12290183408495
7	62666	12.31	-0.5491742287245
7	63223	12.41	-0.96209331723149
7	63780	12.51	-1.3532900275905
7	64337	12.61	-1.5
7	64894	12.71	-1.5
7	65451	12.81	-1.5
7	66008	12.91	-1.5
7	66573	13.01	-1.5
7	67130	13.11	-1.5
7	67687	13.21	-1.5
7	68244	13.31	-1.5
7	68801	13.41	-1.5
7	69358	13.51	-1.5
7	69915	13.61	-1.5
7	70472	13.71	-1.5
7	71029	13.81	-1.5
7	71586	13.91	-1.5
7	72151	14.01	-1.5
7	72708	14.11	-1.5
7	73265	14.21	-1.5
7	73822	14.31	-1.5
7	74379	14.41	-1.300830579343
7	74936	14.51	-0.88835736023715
7	75493	14.61	-0.45792464377335
7	76050	14.71	-0.020297800504288
7	76607	14.81	0.41435934755211
7	77164	14.91	0.83657487482698
7	77729	15.01	1.2376491838765
7	78286	15.11	1.5
7	78843	15.21	1.5
7	79400	15.31	1.5
7	79957	15.41	1.5
7	80514	15.51	1.5
7	81071	15.61	1.5
7	81628	15.71	1.5
7	82185	15.81	1.5
7	82742	15.91	1.5
7	83307	16.01	1.5
7	83864	16.11	1.5
7	84421	16.21	1.5
7	84978	16.31	1.5
7	85535	16.41	1.5
7	86092	16.51	1.5
7	86649	16.61	1.5
7	87206	16.71	1.5
7	87763	16.81	1.5
7	88320	16.91	1.2451238477297
7	88885	17.01	0.83347870134542
7	89442	17.11	0.40470958876118
7	89999	17.21	-0.030598062226161
7	90556	17.31	-0.46243980387321
7	91113	17.41	-0.88148335305221
7	91670	17.51	-1.2791500631775
7	92227	17.61	-1.5
7	92784	17.71	-1.5
7	93341	17.81	-1.5
7	93898	17.91	-1.5
7	94463	18.01	-1.5
7	95020	18.11	-1.5
7	95577	18.21	-1.5
7	96134	18.31	-1.5
7	96691	18.41	-1.5
7	97248	18.51	-1.5
7	97805	18.61	-1.5
7	98362	18.71	-1.5
7	98919	18.81	-1.5
7	99476	18.91	-1.5
7	100041	19.01	-1.5
7	100598	19.11	-1.5
7	101155	19.21	-1.5
7	101712	19.31	-1.5
7	102269	19.41	-1.2657245815155
7	102826	19.51	-0.85377693481785
7	103383	19.61	-0.42439560038367
7	103940	19.71	0.011767371265513
7	104497	19.81	0.44464851836144
7	105054	19.91	0.86486384400278
7	105619	20.01	1.2637899041103
7	106176	20.11	1.5
7	106733	20.21	1.5
7	107290	20.31	1.5
7	107847	20.41	1.5
7	108404	20.51	1.5
7	108961	20.61	1.5
7	109518	20.71	1.5
7	110075	20.81	1.5
7	110632	20.91	1.5
7	111197	21.01	1.5
7	111754	21.11	1.5
7	112311	21.21	1.5
7	112868	21.31	1.5
7	113425	21.41	1.5
7	113982	21.51	1.5
7	114539	21.61	1.5
7	115096	21.71	1.5
7	115653	21.81	1.5
7	116210	21.91	1.2580915517739
7	116775	22.01	0.84625491634584
7	117332	22.11	0.41709956367264
7	117889	22.21	-0.018747163545136
7	118446	22.31	-0.45124369149665
7	119003	22.41	-0.87102520538844
7	119560	22.51	-1.269484879462
7	120117	22.61	-1.5
7	120674	22.71	-1.5
7	121231	22.81	-1.5
7	121788	22.91	-1.5
7	122353	23.01	-1.5
7	122910	23.11	-1.5
7	123467	23.21	-1.5
7	124024	23.31	-1.5
7	124581	23.41	-1.5
7	125138	23.51	-1.5
7	125695	23.61	-1.5
7	126252	23.71	-1.5
7	126809	23.81	-1.5
7	127366	23.91	-1.5
7	127931	24.01	-1.5
7	128488	24.11	-1.5
7	129045	24.21	-1.5
7	129602	24.31	-1.5
7	130159	24.41	-1.260923965114
7	130716	24.51	-0.84904615684758
7	131273	24.61	-0.41980696481334
7	131830	24.71	0.016157099443966
7	132387	24.81	0.44879633965816
7	132944	24.91	0.86873882266688
7	133509	25.01	1.2673715557178
7	134066	25.11	1.5
7	134623	25.21	1.5
7	135180	25.31	1.5
7	135737	25.41	1.5
7	136294	25.51	1.5
7	136851	25.61	1.5
7	137408	25.71	1.5
7	137965	25.81	1.5
7	138522	25.91	1.5
7	139087	26.01	1.5
7	139644	26.11	1.5
7	140201	26.21	1.5
7	140758	26.31	1.5
7	141315	26.41	1.5
7	141872	26.51	1.5
7	142429	26.61	1.5
7	142986	26.71	1.5
7	143543	26.81	1.5
7	144100	26.91	1.2598728518647
7	144665	27.01	0.8480103225158
7	145222	27.11	0.41880224309308
7	145779	27.21	-0.017118277440183
7	146336	27.31	-0.44970455708226
7	146893	27.41	-0.86958730431697
7	147450	27.51	-1.2681558149808
7	148007	27.61	-1.5
7	148564	27.71	-1.5
7	149121	27.81	-1.5
7	149678	27.91	-1.5
7	150243	28.01	-1.5
7	150800	28.11	-1.5
7	151357	28.21	-1.5
7	151914	28.31	-1.5
7	152471	28.41	-1.5
7	153028	28.51	-1.5
7	153585	28.61	-1.5
7	154142	28.71	-1.5
7	154699	28.81	-1.5
7	155256	28.91	-1.5
7	155821	29.01	-1.5
7	156378	29.11	-1.5
7	156935	29.21	-1.5
7	157492	29.31	-1.5
7	158049	29.41	-1.2602629232501
7	158606	29.51	-0.84839472385493
7	159163	29.61	-0.41917509845157
7	159720	29.71	0.016761581288016
7	160277	29.81	0.44936751475895
7	160834	29.91	0.86927243012207
7	161399	30.01	1.2678647739113
7	161956	30.11	1.5
7	162513	30.21	1.5
7	163070	30.31	1.5
7	163627	30.41	1.5
7	164184	30.51	1.5
7	164741	30.61	1.5
7	165298	30.71	1.5
7	165855	30.81	1.5
7	166412	30.91	1.5
7	166977	31.01	1.5
7	167534	31.11	1.5
7	168091	31.21	1.5
7	168648	31.31	1.5
7	169205	31.41	1.5
7	169762	31.51	1.5
7	170319	31.61	1.5
7	170876	31.71	1.5
7	171433	31.81	1.5
7	171990	31.91	1.2601181665228
7	172555	32.01	0.84825207129951
7	173112	32.11	0.41903673064589
7	173669	32.21	-0.016893952361208
7	174226	32.31	-0.44949259223428
7	174783	32.41	-0.8693892809349
7	175340	32.51	-1.2679727801759
7	175897	32.61	-1.5
7	176454	32.71	-1.5
7	177011	32.81	-1.5
7	177568	32.91	-1.5
7	178133	33.01	-1.5
7	178690	33.11	-1.5
7	179247	33.21	-1.5
7	179804	33.31	-1.5
7	180361	33.41	-1.5
7	180918	33.51	-1.5
7	181475	33.61	-1.5
7	182032	33.71	-1.5
7	182589	33.81	-1.5
7	183146	33.91	-1.5
7	183711	34.01	-1.5
7	184268	34.11	-1.5
7	184825	34.21	-1.5
7	185382	34.31	-1.5
7	185939	34.41	-1.2601718862023
7	186496	34.51	-0.84830501011423
7	187053	34.61	-0.4190880793765
7	187610	34.71	0.016844829036998
7	188167	34.81	0.44944617558727
7	188724	34.91	0.86934591722826
7	189289	35.01	1.2679326987089
7	189846	35.11	1.5
7	190403	35.21	1.5
7	190960	35.31	1.5
7	191517	35.41	1.5
7	192074	35.51	1.5
7	192631	35.61	1.5
7	193188	35.71	1.5
7	193745	35.81	1.5
7	194302	35.91	1.5
7	194867	36.01	1.5
7	195424	36.11	1.5
7	195981	36.21	1.5
7	196538	36.31	1.5
7	197095	36.41	1.5
7	197652	36.51	1.5
7	198209	36.61	1.5
7	198766	36.71	1.5
7	199323	36.81	1.5
7	199880	36.91	1.2601519506582
7	200445	37.01	0.8482853643515
7	201002	37.11	0.41906902369898
7	201559	37.21	-0.016863058859116
7	202116	37.31	-0.4494634009528
7	202673	37.41	-0.86936200963788
7	203230	37.51	-1.2679475730689
7	203787	37.61	-1.5
7	204344	37.71	-1.5
7	204901	37.81	-1.5
7	205458	37.91	-1.5
7	206023	38.01	-1.5
7	206580	38.11	-1.5
7	207137	38.21	-1.5
7	207694	38.31	-1.5
7	208251	38.41	-1.5
7	208808	38.51	-1.5
7	209365	38.61	-1.5
7	209922	38.71	-1.5
7	210479	38.81	-1.5
7	211036	38.91	-1.5
7	211601	39.01	-1.5
7	212158	39.11	-1.5
7	212715	39.21	-1.5
7	213272	39.31	-1.5
7	213829	39.41	-1.2601593487987
7	214386	39.51	-0.84829265495303
7	214943	39.61	-0.41907609531791
7	215500	39.71	0.016856293717851
7	216057	39.81	0.44945700856871
7	216614	39.91	0.86935603769744
7	217179	40.01	1.2679420531505
7	217736	40.11	1.5
7	218293	40.21	1.5
7	218850	40.31	1.5
7	219407	40.41	1.5
7	219964	40.51	1.5
7	220521	40.61	1.5
7	221078	40.71	1.5
7	221635	40.81	1.5
7	222192	40.91	1.5
7	222757	41.01	1.5
7	223314	41.11	1.5
7	223871	41.21	1.5
7	224428	41.31	1.5
7	224985	41.41	1.5
7	225542	41.51	1.5
7	226099	41.61	1.5
7	226656	41.71	1.5
7	227213	41.81	1.5
7	227770	41.91	1.2601566033295
7	228335	42.01	0.84828994939176
7	228892	42.11	0.4190734710217
7	229449	42.21	-0.016858804279273
7	230006	42.31	-0.4494593807989
7	230563	42.41	-0.86935825389989
7	231120	42.51	-1.2679441016065
7	231677	42.61	-1.5
7	232234	42.71	-1.5
7	232791	42.81	-1.5
7	233348	42.91	-1.5
7	233913	43.01	-1.5
7	234470	43.11	-1.5
7	235027	43.21	-1.5
7	235584	43.31	-1.5
7	236141	43.41	-1.5
7	236698	43.51	-1.5
7	237255	43.61	-1.5
7	237812	43.71	-1.5
7	238369	43.81	-1.5
7	238926	43.91	-1.5
7	239491	44.01	-1.5
7	240048	44.11	-1.5
7	240605	44.21	-1.5
7	241162	44.31	-1.5
7	241719	44.41	-1.2601576221806
7	242276	44.51	-0.84829095343299
7	242833	44.61	-0.41907444490522
7	243390	44.71	0.016857872603133
7	243947	44.81	0.44945850045789
7	244504	44.91	0.86935743146116
7	245069	45.01	1.2679433414189
7	245626	45.11	1.5
7	246183	45.21	1.5
7	246740	45.31	1.5
7	247297	45.41	1.5
7	247854	45.51	1.5
7	248411	45.61	1.5
7	248968	45.71	1.5
7	249525	45.81	1.5
7	250082	45.91	1.5
7	250647	46.01	1.5
7	251204	46.11	1.5
7	251761	46.21	1.5
7	252318	46.31	1.5
7	252875	46.41	1.5
7	253432	46.51	1.5
7	253989	46.61	1.5
7	254546	46.71	1.5
7	255103	46.81	1.5
7	255660	46.91	1.2601572440836
7	256225	47.01	0.84829058083199
7	256782	47.11	0.41907408349598
7	257339	47.21	-0.016858218348986
7	257896	47.31	-0.44945882715304
7	258453	47.41	-0.86935773666848
7	259010	47.51	-1.2679436235246
7	259567	47.61	-1.5
7	260124	47.71	-1.5
7	260681	47.81	-1.5
7	261238	47.91	-1.5
7	261803	48.01	-1.5
7	262360	48.11	-1.5
7	262917	48.21	-1.5
7	263474	48.31	-1.5
7	264031	48.41	-1.5
7	264588	48.51	-1.5
7	265145	48.61	-1.5
7	265702	48.71	-1.5
7	266259	48.81	-1.5
7	266816	48.91	-1.5
7	267381	49.01	-1.5
7	267938	49.11	-1.5
7	268495	49.21	-1.5
7	269052	49.31	-1.5
7	269609	49.41	-1.2601573843962
7	270166	49.51	-0.84829071910518
7	270723	49.61	-0.41907421761598
7	271280	49.71	0.016858090041644
7	271837	49.81	0.44945870591545
7	272394	49.91	0.86935762340499
7	272959	50.01	1.267943518834
7	273516	50.11	1.5
7	274073	50.21	1.5
7	274630	50.31	1.5
7	275187	50.41	1.5
7	275744	50.51	1.5
7	276301	50.61	1.5
7	276858	50.71	1.5
7	277415	50.81	1.5
7	277972	50.91	1.5
7	278537	51.01	1.5
7	279094	51.11	1.5
7	279651	51.21	1.5
7	280208	51.31	1.5
7	280765	51.41	1.5
7	281322	51.51	1.5
7	281879	51.61	1.5
7	282436	51.71	1.5
7	282993	51.81	1.5
7	283550	51.91	1.2601573323271
7	284115	52.01	0.84829066779303
7	284672	52.11	0.41907416784508
7	285229	52.21	-0.01685813765549
7	285786	52.31	-0.44945875090566
7	286343	52.41	-0.86935766543601
7	286900	52.51	-1.2679435576837
7	287457	52.61	-1.5
7	288014	52.71	-1.5
7	288571	52.81	-1.5
7	289128	52.91	-1.5
7	289693	53.01	-1.5
7	290250	53.11	-1.5
7	290807	53.21	-1.5
7	291364	53.31	-1.5
7	291921	53.41	-1.5
7	292478	53.51	-1.5
7	293035	53.61	-1.5
7	293592	53.71	-1.5
7	294149	53.81	-1.5
7	294706	53.91	-1.5
7	295271	54.01	-1.5
7	295828	54.11	-1.5
7	296385	54.21	-1.5
7	296942	54.31	-1.5
7	297499	54.41	-1.2601573516453
7	298056	54.51	-0.84829068683009
7	298613	54.61	-0.41907418631006
7	299170	54.71	0.016858119991007
7	299727	54.81	0.44945873421482
7	300284	54.91	0.86935764984334
7	300849	55.01	1.2679435432716
7	301406	55.11	1.5
7	301963	55.21	1.5
7	302520	55.31	1.5
7	303077	55.41	1.5
7	303634	55.51	1.5
7	304191	55.61	1.5
7	304748	55.71	1.5
7	305305	55.81	1.5
7	305862	55.91	1.5
7	306427	56.01	1.5
7	306984	56.11	1.5
7	307541	56.21	1.5
7	308098	56.31	1.5
7	308655	56.41	1.5
7	309212	56.51	1.5
7	309769	56.61	1.5
7	310326	56.71	1.5
7	310883	56.81	1.5
7	311440	56.91	1.260157344482
7	312005	57.01	0.8482906797713
7	312562	57.11	0.41907417946368
7	313119	57.21	-0.016858126540363
7	313676	57.31	-0.44945874040299
7	314233	57.41	-0.86935765562429
7	314790	57.51	-1.2679435486147
7	315347	57.61	-1.5
7	315904	57.71	-1.5
7	316461	57.81	-1.5
7	317018	57.91	-1.5
7	317583	58.01	-1.5
7	318140	58.11	-1.5
7	318697	58.21	-1.5
7	319254	58.31	-1.5
7	319811	58.41	-1.5
7	320368	58.51	-1.5
7	320925	58.61	-1.5
7	321482	58.71	-1.5
7	322039	58.81	-1.5
7	322596	58.91	-1.5
7	323161	59.01	-1.5
7	323718	59.11	-1.5
7	324275	59.21	-1.5
7	324832	59.31	-1.5
7	325389	59.41	-1.2601573471354
7	325946	59.51	-0.84829068238587
7	326503	59.61	-0.41907418199942
7	327060	59.71	0.016858124114655
7	327617	59.81	0.44945873811101
7	328174	59.91	0.86935765348309
6	232	1.11	1.8587371641843e-07
6	788	1.21	3.7715039979958e-07
6	1344	1.31	5.2730015909219e-07
6	1900	1.41	6.4101826069418e-07
6	2456	1.51	7.2280812446479e-07
6	3012	1.61	7.7694011224594e-07
6	3568	1.71	8.0741315855448e-07
6	4124	1.81	8.1792990158647e-07
6	4680	1.91	8.1188602507609e-07
6	5244	2.01	7.9236670558203e-07
6	5800	2.11	7.6214163868826e-07
6	6356	2.21	7.2367640768789e-07
6	6912	2.31	6.7914172063865e-07
6	7468	2.41	6.3042691067494e-07
6	8024	2.51	5.791562784907e-07
6	8580	2.61	5.2670969807878e-07
6	9136	2.71	4.7423895921384e-07
6	9692	2.81	4.226883731917e-07
6	10248	2.91	3.7281679965417e-07
6	10812	3.01	3.2521825232834e-07
6	11368	3.11	2.8033753096679e-07
6	11924	3.21	2.3849224817241e-07
6	12480	3.31	1.9988561916762e-07
6	13036	3.41	1.6463133079014e-07
6	13592	3.51	1.3275709420668e-07
6	14148	3.61	1.0422880336591e-07
6	14704	3.71	7.8954798254927e-08
6	15260	3.81	5.6805049553077e-08
6	15816	3.91	3.7617553516611e-08
6	16380	4.01	2.1201884692346e-08
6	16936	4.11	7.354117315117e-09
6	17492	4.21	-4.1374903503311e-09
6	18048	4.31	-1.3491074923877e-08
6	18604	4.41	-2.0921930854456e-08
6	19160	4.51	-2.6641799877325e-08
6	19716	4.61	-3.0856028843118e-08
6	20272	4.71	-3.3759306461434e-08
6	20828	4.81	-3.5534952758098e-08
6	21384	4.91	-3.6354919075166e-08
6	21949	5.01	-3.6375524814503e-08
6	22506	5.11	0.0068263931019885
6	23063	5.21	0.074594779098902
6	23620	5.31	0.19005129180201
6	24177	5.41	0.34050267454901
6	24734	5.51	0.51301634170429
6	25291	5.61	0.6902545459468
6	25848	5.71	0.83572669343468
6	26405	5.81	0.95506452230651
6	26962	5.91	1.0529631073332
6	27527	6.01	1.1332740451195
6	28084	6.11	1.1991569863937
6	28641	6.21	1.2532039452594
6	29198	6.31	1.2975412760781
6	29755	6.41	1.3339133300356
6	30312	6.51	1.3635927180715
6	30869	6.61	1.3702053544215
6	31426	6.71	1.3272611853779
6	31983	6.81	1.2373810849141
6	32540	6.91	1.1040433684336
6	33105	7.01	0.93147091325463
6	33662	7.11	0.72451589912248
6	34219	7.21	0.48854317732108
6	34776	7.31	0.22931329054146
6	35333	7.41	-0.044839403605579
6	35890	7.51	-0.30626147870336
6	36447	7.61	-0.52071863355891
6	37004	7.71	-0.69664819594024
6	37561	7.81	-0.84097171333752
6	38118	7.91	-0.95936726546597
6	38683	8.01	-1.0564928553684
6	39240	8.11	-1.1361696679188
6	39797	8.21	-1.2015324056335
6	40354	8.31	-1.2551526163939
6	40911	8.41	-1.2991398651295
6	41468	8.51	-1.3352247298471
6	42025	8.61	-1.3648268872679
6	42582	8.71	-1.3891109667817
6	43139	8.81	-1.4090323701247
6	43696	8.91	-1.4253748594882
6	44261	9.01	-1.4387813928529
6	44818	9.11	-1.4497794197055
6	45375	9.21	-1.4588016323373
6	45932	9.31	-1.4662029891298
6	46489	9.41	-1.4722746795918
6	47046	9.51	-1.4696249147882
6	47603	9.61	-1.3967850640618
6	48160	9.71	-1.2587757643061
6	48717	9.81	-1.066095221988
6	49274	9.91	-0.82923335039382
6	49839	10.01	-0.55852907855325
6	50396	10.11	-0.26404116091285
6	50953	10.21	0.03943269852158
6	51510	10.31	0.30182609737963
6	52067	10.41	0.5170800760304
6	52624	10.51	0.69366331145844
6	53181	10.61	0.83852306842829
6	53738	10.71	0.95735852377814
6	54295	10.81	1.0548449875394
6	54852	10.91	1.1348178423468
6	55417	11.01	1.2004234378246
6	55974	11.11	1.2542428765379
6	56531	11.21	1.2983935615857
6	57088	11.31	1.3346125010031
6	57645	11.41	1.3643246463779
6	58202	11.51	1.3886989543209
6	58759	11.61	1.4086943764035
6	59316	11.71	1.4250975869132
6	59873	11.81	1.438553932767
6	60430	11.91	1.4345627372599
6	60995	12.01	1.3623449188415
6	61552	12.11	1.2299875654037
6	62109	12.21	1.0461448397272
6	62666	12.31	0.81967864243424
6	63223	12.41	0.55952045898948
6	63780	12.51	0.27454262943465
6	64337	12.61	-0.022341644934443
6	64894	12.71	-0.28780548062457
6	65451	12.81	-0.50557828691211
6	66008	12.91	-0.68422783830826
6	66573	13.01	-0.83078269407011
6	67130	13.11	-0.95100872083407
6	67687	13.21	-1.0496359374898
6	68244	13.31	-1.1305446069947
6	68801	13.41	-1.1969178964684
6	69358	13.51	-1.2513671116459
6	69915	13.61	-1.2960344327446
6	70472	13.71	-1.332677193669
6	71029	13.81	-1.3627370202968
6	71586	13.91	-1.3873965479647
6	72151	14.01	-1.4076259495631
6	72708	14.11	-1.4242211047723
6	73265	14.21	-1.4378349121337
6	73822	14.31	-1.4490029758569
6	74379	14.41	-1.4542593951873
6	74936	14.51	-1.4067454390094
6	75493	14.61	-1.2938574955413
6	76050	14.71	-1.1248409052385
6	76607	14.81	-0.90912582144114
6	77164	14.91	-0.65618298377643
6	77729	15.01	-0.37539052555147
6	78286	15.11	-0.078063005102535
6	78843	15.21	0.20543869666909
6	79400	15.31	0.438008835728
6	79957	15.41	0.62879735390737
6	80514	15.51	0.78531039043099
6	81071	15.61	0.9137055938524
6	81628	15.71	1.0190343806897
6	82185	15.81	1.1054406719012
6	82742	15.91	1.1763239259942
6	83307	16.01	1.2344728829795
6	83864	16.11	1.2821752809813
6	84421	16.21	1.3213078620829
6	84978	16.31	1.3534102084591
6	85535	16.41	1.3797453137308
6	86092	16.51	1.4013492725667
6	86649	16.61	1.4190720434684
6	87206	16.71	1.4336108884464
6	87763	16.81	1.4455378052055
6	88320	16.91	1.450294906531
6	88885	17.01	1.3935559567486
6	89442	17.11	1.273336870139
6	89999	17.21	1.0986742440473
6	90556	17.31	0.87879676590887
6	91113	17.41	0.62298329275308
6	91670	17.51	0.34043137852748
6	92227	17.61	0.043031849074282
6	92784	17.71	-0.23417644595867
6	93341	17.81	-0.46158379950043
6	93898	17.91	-0.64813703535762
6	94463	18.01	-0.80117566522802
6	95020	18.11	-0.92672064505877
6	95577	18.21	-1.0297112558206
6	96134	18.31	-1.1141994282617
6	96691	18.41	-1.1835091568834
6	97248	18.51	-1.240367274923
6	97805	18.61	-1.2870107353912
6	98362	18.71	-1.3252746188869
6	98919	18.81	-1.3566643306589
6	99476	18.91	-1.3824148273436
6	100041	19.01	-1.4035392035204
6	100598	19.11	-1.420868549603
6	101155	19.21	-1.4350846492
6	101712	19.31	-1.4467468023348
6	102269	19.41	-1.4517201941764
6	102826	19.51	-1.3984004323888
6	103383	19.61	-1.2808993810097
6	103940	19.71	-1.1083308503785
6	104497	19.81	-0.88999806036867
6	105054	19.91	-0.63525086466854
6	105619	20.01	-0.35335363991464
6	106176	20.11	-0.055983891308387
6	106733	20.21	0.22355126013309
6	107290	20.31	0.45286744637281
6	107847	20.41	0.64098658988812
6	108404	20.51	0.79530980944469
6	108961	20.61	0.92190860023891
6	109518	20.71	1.0257637030342
6	110075	20.81	1.1109610600442
6	110632	20.91	1.1808525670212
6	111197	21.01	1.2381879459461
6	111754	21.11	1.2852229265711
6	112311	21.21	1.3238079929607
6	112868	21.31	1.3554611865736
6	113425	21.41	1.3814278301389
6	113982	21.51	1.4027295220423
6	114539	21.61	1.4202043287803
6	115096	21.71	1.4345397567773
6	115653	21.81	1.4462998007623
6	116210	21.91	1.4512038299465
6	116775	22.01	1.3966149622043
6	117332	22.11	1.2781048258539
6	117889	22.21	1.104758616826
6	118446	22.31	0.88585193074024
6	119003	22.41	0.63070830476093
6	119560	22.51	0.34856734380924
6	120117	22.61	0.051185654368879
6	120674	22.71	-0.22748748564823
6	121231	22.81	-0.45609652228151
6	121788	22.91	-0.64363555681979
6	122353	23.01	-0.79748288496191
6	122910	23.11	-0.92369127904561
6	123467	23.21	-1.0272261205614
6	124024	23.31	-1.1121607517779
6	124581	23.41	-1.1818367320963
6	125138	23.51	-1.2389953040923
6	125695	23.61	-1.2858852414531
6	126252	23.71	-1.324351321847
6	126809	23.81	-1.355906905502
6	127366	23.91	-1.3817934749042
6	127931	24.01	-1.403029478103
6	128488	24.11	-1.4204503972238
6	129045	24.21	-1.4347416186069
6	129602	24.31	-1.4464653977718
6	130159	24.41	-1.4513952146871
6	130716	24.51	-1.397277320676
6	131273	24.61	-1.2791416668563
6	131830	24.71	-1.1060840673039
6	132387	24.81	-0.88739036841758
6	132944	24.91	-0.63239387292811
6	133509	25.01	-0.35034337811126
6	134066	25.11	-0.052966136912147
6	134623	25.21	0.22602686982154
6	135180	25.31	0.45489830857193
6	135737	25.41	0.64265260423966
6	136294	25.51	0.7966765214853
6	136851	25.61	0.92302978013734
6	137408	25.71	1.0266834610576
6	137965	25.81	1.1117155819754
6	138522	25.91	1.1814715378058
6	139087	26.01	1.2386957175771
6	139644	26.11	1.2856394761641
6	140201	26.21	1.3241497087101
6	140758	26.31	1.3557415125085
6	141315	26.41	1.3816577950429
6	141872	26.51	1.4029181733591
6	142429	26.61	1.4203590885664
6	142986	26.71	1.4346667137048
6	143543	26.81	1.4464039496623
6	144100	26.91	1.4513241957715
6	144665	27.01	1.3970315218245
6	145222	27.11	1.2787568961947
6	145779	27.21	1.1055921925461
6	146336	27.31	0.8868194531928
6	146893	27.41	0.63176835684402
6	147450	27.51	0.34968428947408
6	148007	27.61	0.052305397196051
6	148564	27.71	-0.22656890652399
6	149121	27.81	-0.45534296745871
6	149678	27.91	-0.64301737940156
6	150243	28.01	-0.79697576417033
6	150800	28.11	-0.92327526336575
6	151357	28.21	-1.0268848428062
6	151914	28.31	-1.1118807851517
6	152471	28.41	-1.1816070619503
6	153028	28.51	-1.2388068945782
6	153585	28.61	-1.2857306800278
6	154142	28.71	-1.3242245276466
6	154699	28.81	-1.3558028900952
6	155256	28.91	-1.3817081460417
6	155821	29.01	-1.4029594787168
6	156378	29.11	-1.4203929733462
6	156935	29.21	-1.4346945110262
6	157492	29.31	-1.446426753148
6	158049	29.41	-1.4513505510308
6	158606	29.51	-1.3971227384744
6	159163	29.61	-1.2788996857282
6	159720	29.71	-1.1057747287524
6	160277	29.81	-0.88703132157306
6	160834	29.91	-0.63200048778285
6	161399	30.01	-0.34992887930017
6	161956	30.11	-0.052550599748002
6	162513	30.21	0.22636775502534
6	163070	30.31	0.45517795316812
6	163627	30.41	0.64288201020943
6	164184	30.51	0.79686471428317
6	164741	30.61	0.92318416377992
6	165298	30.71	1.0268101094155
6	165855	30.81	1.1118194777403
6	166412	30.91	1.181556768519
6	166977	31.01	1.2387656364474
6	167534	31.11	1.2856968339904
6	168091	31.21	1.3241967621056
6	168648	31.31	1.3557801126808
6	169205	31.41	1.3816894606293
6	169762	31.51	1.4029441501705
6	170319	31.61	1.4203803985993
6	170876	31.71	1.434684195354
6	171433	31.81	1.4464182907048
6	171990	31.91	1.4513407705138
6	172555	32.01	1.3970888876891
6	173112	32.11	1.2788466960821
6	173669	32.21	1.1057069889901
6	174226	32.31	0.88695269654835
6	174783	32.41	0.63191434325702
6	175340	32.51	0.3498381112415
6	175897	32.61	0.052459604304289
6	176454	32.71	-0.22644240298533
6	177011	32.81	-0.45523919049515
6	177568	32.91	-0.64293224614715
6	178133	33.01	-0.79690592524955
6	178690	33.11	-0.92321797112547
6	179247	33.21	-1.0268378432137
6	179804	33.31	-1.1118422291148
6	180361	33.41	-1.1815754325717
6	180918	33.51	-1.2387809474724
6	181475	33.61	-1.2857093943644
6	182032	33.71	-1.3242070659885
6	182589	33.81	-1.3557885654535
6	183146	33.91	-1.3816963948479
6	183711	34.01	-1.4029498386442
6	184268	34.11	-1.4203850651299
6	184825	34.21	-1.4346880235344
6	185382	34.31	-1.4464214311445
6	185939	34.41	-1.4513444000933
6	186496	34.51	-1.3971014498217
6	187053	34.61	-1.2788663607076
6	187610	34.71	-1.1057321274301
6	188167	34.81	-0.88698187454312
6	188724	34.91	-0.63194631176131
6	189289	35.01	-0.34987179555372
6	189846	35.11	-0.052493373000573
6	190403	35.21	0.22641470089155
6	190960	35.31	0.45521646513009
6	191517	35.41	0.64291360343205
6	192074	35.51	0.79689063173021
6	192631	35.61	0.92320542511359
6	193188	35.71	1.0268275511145
6	193745	35.81	1.1118337860083
6	194302	35.91	1.1815685062835
6	194867	36.01	1.2387752655023
6	195424	36.11	1.2857047331693
6	195981	36.21	1.3242032421843
6	196538	36.31	1.3557854286027
6	197095	36.41	1.3816938215371
6	197652	36.51	1.4029477276331
6	198209	36.61	1.4203833333653
6	198766	36.71	1.4346866028845
6	199323	36.81	1.4464202657166
6	199880	36.91	1.4513430531451
6	200445	37.01	1.397096787975
6	201002	37.11	1.2788590631018
6	201559	37.21	1.105722798475
6	202116	37.31	0.88697104649569
6	202673	37.41	0.63193444814758
6	203230	37.51	0.34985929519777
6	203787	37.61	0.052480841328872
6	204344	37.71	-0.22642498122849
6	204901	37.81	-0.4552248985874
6	205458	37.91	-0.64292052180548
6	206023	38.01	-0.79689630720523
6	206580	38.11	-0.92321008097898
6	207137	38.21	-1.0268313705467
6	207694	38.31	-1.1118369192744
6	208251	38.41	-1.1815710766527
6	208808	38.51	-1.2387773741011
6	209365	38.61	-1.2857064629564
6	209922	38.71	-1.3242046612127
6	210479	38.81	-1.3557865927005
6	211036	38.91	-1.3816947765022
6	211601	39.01	-1.4029485110377
6	212158	39.11	-1.4203839760292
6	212715	39.21	-1.4346871300937
6	213272	39.31	-1.4464206982126
6	213829	39.41	-1.4513435530041
6	214386	39.51	-1.3970985180023
6	214943	39.61	-1.278861771268
6	215500	39.71	-1.1057262604808
6	216057	39.81	-0.88697506482021
6	216614	39.91	-0.63193885077268
6	217179	40.01	-0.34986393411884
6	217736	40.11	-0.052485491870868
6	218293	40.21	0.22642116616325
6	218850	40.31	0.455221768906
6	219407	40.41	0.64291795437512
6	219964	40.51	0.79689420101801
6	220521	40.61	0.92320835317281
6	221078	40.71	1.0268299531432
6	221635	40.81	1.1118357565088
6	222192	40.91	1.1815701227796
6	222757	41.01	1.2387765915925
6	223314	41.11	1.2857058210251
6	223871	41.21	1.3242041346054
6	224428	41.31	1.3557861606998
6	224985	41.41	1.3816944221119
6	225542	41.51	1.4029482203135
6	226099	41.61	1.4203837375341
6	226656	41.71	1.434686934445
6	227213	41.81	1.4464205377131
6	227770	41.91	1.4513433675056
6	228335	42.01	1.3970978759843
6	228892	42.11	1.27886076626
6	229449	42.21	1.1057249757201
6	230006	42.31	0.88697357360843
6	230563	42.41	0.63193721694788
6	231120	42.51	0.34986221260453
6	231677	42.61	0.052483766043565
6	232234	42.71	-0.22642258194239
6	232791	42.81	-0.45522293033713
6	233348	42.91	-0.64291890715467
6	233913	43.01	-0.79689498262923
6	234470	43.11	-0.92320899436658
6	235027	43.21	-1.0268304791452
6	235584	43.31	-1.1118361880143
6	236141	43.41	-1.1815704767656
6	236698	43.51	-1.2387768819849
6	237255	43.61	-1.2857060592488
6	237812	43.71	-1.3242043300316
6	238369	43.81	-1.3557863210153
6	238926	43.91	-1.381694553627
6	239491	44.01	-1.4029483282016
6	240048	44.11	-1.4203838260407
6	240605	44.21	-1.4346870070497
6	241162	44.31	-1.4464205972743
6	241719	44.41	-1.451343436343
6	242276	44.51	-1.3970981142386
6	242833	44.61	-1.2788611392217
6	243390	44.71	-1.1057254524992
6	243947	44.81	-0.88697412700114
6	244504	44.91	-0.63193782326465
6	245069	45.01	-0.34986285146203
6	245626	45.11	-0.052484406501208
6	246183	45.21	0.22642205654364
6	246740	45.31	0.45522249932759
6	247297	45.41	0.64291855357581
6	247854	45.51	0.79689469257076
6	248411	45.61	0.92320875641718
6	248968	45.71	1.0268302839435
6	249525	45.81	1.11183602788
6	250082	45.91	1.1815703453983
6	250647	46.01	1.2387767742169
6	251204	46.11	1.2857059708395
6	251761	46.21	1.3242042575051
6	252318	46.31	1.3557862615187
6	252875	46.41	1.3816945048191
6	253432	46.51	1.4029482881632
6	253989	46.61	1.4203837931959
6	254546	46.71	1.4346869801066
6	255103	46.81	1.4464205751715
6	255660	46.91	1.4513434107982
6	256225	47.01	1.3970980258208
6	256782	47.11	1.278861000813
6	257339	47.21	1.1057252755641
6	257896	47.31	0.88697392163439
6	258453	47.41	0.63193759825779
6	259010	47.51	0.34986261438021
6	259567	47.61	0.052484168826794
6	260124	47.71	-0.2264222515187
6	260681	47.81	-0.45522265927502
6	261238	47.91	-0.64291868478819
6	261803	48.01	-0.79689480021159
6	262360	48.11	-0.92320884471988
6	262917	48.21	-1.0268303563826
6	263474	48.31	-1.1118360873056
6	264031	48.41	-1.181570394148
6	264588	48.51	-1.2387768142098
6	265145	48.61	-1.2857060036488
6	265702	48.71	-1.3242042844205
6	266259	48.81	-1.3557862835988
6	266816	48.91	-1.3816945229308
6	267381	49.01	-1.4029483030207
6	267938	49.11	-1.4203838053838
6	268495	49.21	-1.434686990104
6	269052	49.31	-1.4464205833725
6	269609	49.41	-1.4513434202762
6	270166	49.51	-1.3970980586322
6	270723	49.61	-1.278861052176
6	271280	49.71	-1.1057253412254
6	271837	49.81	-0.88697399784579
6	272394	49.91	-0.63193768175651
6	272959	50.01	-0.34986270236033
6	273516	50.11	-0.052484257028595
6	274073	50.21	0.22642217916342
6	274630	50.31	0.45522259991841
6	275187	50.41	0.64291863609398
6	275744	50.51	0.79689476026559
6	276301	50.61	0.92320881195036
6	276858	50.71	1.0268303294993
6	277415	50.81	1.1118360652517
6	277972	50.91	1.1815703760554
6	278537	51.01	1.2387767993658
6	279094	51.11	1.2857059914715
6	279651	51.21	1.3242042744295
6	280208	51.31	1.3557862754034
6	280765	51.41	1.3816945162091
6	281322	51.51	1.4029482975062
6	281879	51.61	1.4203838008591
6	282436	51.71	1.4346869863921
6	282993	51.81	1.4464205803264
6	283550	51.91	1.4513434167576
6	284115	52.01	1.3970980464549
6	284672	52.11	1.2788610331157
6	285229	52.21	1.105725316858
6	285786	52.31	0.88697396956405
6	286343	52.41	0.63193765077045
6	286900	52.51	0.3498626697116
6	287457	52.61	0.052484224296734
6	288014	52.71	-0.22642220601483
6	288571	52.81	-0.45522262194666
6	289128	52.91	-0.64291865416592
6	289693	53.01	-0.79689477509106
6	290250	53.11	-0.92320882411272
6	290807	53.21	-1.0268303394788
6	291364	53.31	-1.1118360734393
6	291921	53.41	-1.1815703827729
6	292478	53.51	-1.2387768048775
6	293035	53.61	-1.2857059959934
6	293592	53.71	-1.32420427814
6	294149	53.81	-1.3557862784467
6	294706	53.91	-1.3816945187052
6	295271	54.01	-1.4029482995547
6	295828	54.11	-1.4203838025402
6	296385	54.21	-1.4346869877713
6	296942	54.31	-1.4464205814591
6	297499	54.41	-1.451343418065
6	298056	54.51	-1.3970980509761
6	298613	54.61	-1.2788610401898
6	299170	54.71	-1.1057253259004
6	299727	54.81	-0.88697398005948
6	300284	54.91	-0.63193766226988
6	300849	55.01	-0.34986268182706
6	301406	55.11	-0.052484236442041
6	301963	55.21	0.22642219605302
6	302520	55.31	0.455222613774
6	303077	55.41	0.64291864746124
6	303634	55.51	0.79689476959004
6	304191	55.61	0.92320881960006
6	304748	55.71	1.0268303357755
6	305305	55.81	1.1118360704003
6	305862	55.91	1.1815703802796
6	306427	56.01	1.2387768028326
6	306984	56.11	1.2857059943151
6	307541	56.21	1.3242042767622
6	308098	56.31	1.3557862773162
6	308655	56.41	1.3816945177773
6	309212	56.51	1.4029482987922
6	309769	56.61	1.4203838019135
6	310326	56.71	1.4346869872561
6	310883	56.81	1.4464205810363
6	311440	56.91	1.4513434175775
6	312005	57.01	1.3970980492964
6	312562	57.11	1.2788610375644
6	313119	57.21	1.1057253225459
6	313676	57.31	0.88697397616713
6	314233	57.41	0.6319376580052
6	314790	57.51	0.3498626773343
6	315347	57.61	0.05248423193791
6	315904	57.71	-0.22642219974713
6	316461	57.81	-0.45522261680375
6	317018	57.91	-0.64291864994814
6	317583	58.01	-0.79689477163001
6	318140	58.11	-0.9232088212741
6	318697	58.21	-1.0268303371497
6	319254	58.31	-1.111836071528
6	319811	58.41	-1.1815703812047
6	320368	58.51	-1.2387768035921
6	320925	58.61	-1.285705994939
6	321482	58.71	-1.3242042772745
6	322039	58.81	-1.3557862777375
6	322596	58.91	-1.3816945181233
6	323161	59.01	-1.4029482990772
6	323718	59.11	-1.420383802148
6	324275	59.21	-1.4346869874494
6	324832	59.31	-1.4464205811933
6	325389	59.41	-1.4513434177587
6	325946	59.51	-1.3970980499202
6	326503	59.61	-1.2788610385371
6	327060	59.71	-1.1057253237887
6	327617	59.81	-0.88697397760811
6	328174	59.91	-0.63193765958403
5	232	1.11	36.55
5	788	1.21	36.55
5	1344	1.31	36.55
5	1900	1.41	36.55
5	2456	1.51	36.55
5	3012	1.61	36.55
5	3568	1.71	36.55
5	4124	1.81	36.55
5	4680	1.91	36.55
5	5244	2.01	36.55
5	5800	2.11	36.55
5	6356	2.21	36.55
5	6912	2.31	36.55
5	7468	2.41	36.55
5	8024	2.51	36.55
5	8580	2.61	36.55
5	9136	2.71	36.55
5	9692	2.81	36.55
5	10248	2.91	36.55
5	10812	3.01	36.55
5	11368	3.11	36.55
5	11924	3.21	36.55
5	12480	3.31	36.55
5	13036	3.41	36.55
5	13592	3.51	36.55
5	14148	3.61	36.55
5	14704	3.71	36.55
5	15260	3.81	36.55
5	15816	3.91	36.55
5	16380	4.01	36.55
5	16936	4.11	36.55
5	17492	4.21	36.55
5	18048	4.31	36.55
5	18604	4.41	36.55
5	19160	4.51	36.55
5	19716	4.61	36.55
5	20272	4.71	36.55
5	20828	4.81	36.55
5	21384	4.91	36.55
5	21949	5.01	36.55
5	22506	5.11	36.55
5	23063	5.21	36.55
5	23620	5.31	36.55
5	24177	5.41	36.55
5	24734	5.51	36.55
5	25291	5.61	36.55
5	25848	5.71	36.55
5	26405	5.81	36.55
5	26962	5.91	36.55
5	27527	6.01	36.55
5	28084	6.11	36.55
5	28641	6.21	36.55
5	29198	6.31	36.55
5	29755	6.41	36.55
5	30312	6.51	36.55
5	30869	6.61	36.55
5	31426	6.71	36.55
5	31983	6.81	36.55
5	32540	6.91	36.55
5	33105	7.01	36.55
5	33662	7.11	36.55
5	34219	7.21	36.55
5	34776	7.31	36.55
5	35333	7.41	36.55
5	35890	7.51	36.55
5	36447	7.61	36.55
5	37004	7.71	36.55
5	37561	7.81	36.55
5	38118	7.91	36.55
5	38683	8.01	36.55
5	39240	8.11	36.55
5	39797	8.21	36.55
5	40354	8.31	36.55
5	40911	8.41	36.55
5	41468	8.51	36.55
5	42025	8.61	36.55
5	42582	8.71	36.55
5	43139	8.81	36.55
5	43696	8.91	36.55
5	44261	9.01	36.55
5	44818	9.11	36.55
5	45375	9.21	36.55
5	45932	9.31	36.55
5	46489	9.41	36.55
5	47046	9.51	36.55
5	47603	9.61	36.55
5	48160	9.71	36.55
5	48717	9.81	36.55
5	49274	9.91	36.55
5	49839	10.01	36.55
5	50396	10.11	36.55
5	50953	10.21	36.55
5	51510	10.31	36.55
5	52067	10.41	36.55
5	52624	10.51	36.55
5	53181	10.61	36.55
5	53738	10.71	36.55
5	54295	10.81	36.55
5	54852	10.91	36.55
5	55417	11.01	36.55
5	55974	11.11	36.55
5	56531	11.21	36.55
5	57088	11.31	36.55
5	57645	11.41	36.55
5	58202	11.51	36.55
5	58759	11.61	36.55
5	59316	11.71	36.55
5	59873	11.81	36.55
5	60430	11.91	36.55
5	60995	12.01	36.55
5	61552	12.11	36.55
5	62109	12.21	36.55
5	62666	12.31	36.55
5	63223	12.41	36.55
5	63780	12.51	36.55
5	64337	12.61	36.55
5	64894	12.71	36.55
5	65451	12.81	36.55
5	66008	12.91	36.55
5	66573	13.01	36.55
5	67130	13.11	36.55
5	67687	13.21	36.55
5	68244	13.31	36.55
5	68801	13.41	36.55
5	69358	13.51	36.55
5	69915	13.61	36.55
5	70472	13.71	36.55
5	71029	13.81	36.55
5	71586	13.91	36.55
5	72151	14.01	36.55
5	72708	14.11	36.55
5	73265	14.21	36.55
5	73822	14.31	36.55
5	74379	14.41	36.55
5	74936	14.51	36.55
5	75493	14.61	36.55
5	76050	14.71	36.55
5	76607	14.81	36.55
5	77164	14.91	36.55
5	77729	15.01	36.55
5	78286	15.11	36.55
5	78843	15.21	36.55
5	79400	15.31	36.55
5	79957	15.41	36.55
5	80514	15.51	36.55
5	81071	15.61	36.55
5	81628	15.71	36.55
5	82185	15.81	36.55
5	82742	15.91	36.55
5	83307	16.01	36.55
5	83864	16.11	36.55
5	84421	16.21	36.55
5	84978	16.31	36.55
5	85535	16.41	36.55
5	86092	16.51	36.55
5	86649	16.61	36.55
5	87206	16.71	36.55
5	87763	16.81	36.55
5	88320	16.91	36.55
5	88885	17.01	36.55
5	89442	17.11	36.55
5	89999	17.21	36.55
5	90556	17.31	36.55
5	91113	17.41	36.55
5	91670	17.51	36.55
5	92227	17.61	36.55
5	92784	17.71	36.55
5	93341	17.81	36.55
5	93898	17.91	36.55
5	94463	18.01	36.55
5	95020	18.11	36.55
5	95577	18.21	36.55
5	96134	18.31	36.55
5	96691	18.41	36.55
5	97248	18.51	36.55
5	97805	18.61	36.55
5	98362	18.71	36.55
5	98919	18.81	36.55
5	99476	18.91	36.55
5	100041	19.01	36.55
5	100598	19.11	36.55
5	101155	19.21	36.55
5	101712	19.31	36.55
5	102269	19.41	36.55
5	102826	19.51	36.55
5	103383	19.61	36.55
5	103940	19.71	36.55
5	104497	19.81	36.55
5	105054	19.91	36.55
5	105619	20.01	36.55
5	106176	20.11	36.55
5	106733	20.21	36.55
5	107290	20.31	36.55
5	107847	20.41	36.55
5	108404	20.51	36.55
5	108961	20.61	36.55
5	109518	20.71	36.55
5	110075	20.81	36.55
5	110632	20.91	36.55
5	111197	21.01	36.55
5	111754	21.11	36.55
5	112311	21.21	36.55
5	112868	21.31	36.55
5	113425	21.41	36.55
5	113982	21.51	36.55
5	114539	21.61	36.55
5	115096	21.71	36.55
5	115653	21.81	36.55
5	116210	21.91	36.55
5	116775	22.01	36.55
5	117332	22.11	36.55
5	117889	22.21	36.55
5	118446	22.31	36.55
5	119003	22.41	36.55
5	119560	22.51	36.55
5	120117	22.61	36.55
5	120674	22.71	36.55
5	121231	22.81	36.55
5	121788	22.91	36.55
5	122353	23.01	36.55
5	122910	23.11	36.55
5	123467	23.21	36.55
5	124024	23.31	36.55
5	124581	23.41	36.55
5	125138	23.51	36.55
5	125695	23.61	36.55
5	126252	23.71	36.55
5	126809	23.81	36.55
5	127366	23.91	36.55
5	127931	24.01	36.55
5	128488	24.11	36.55
5	129045	24.21	36.55
5	129602	24.31	36.55
5	130159	24.41	36.55
5	130716	24.51	36.55
5	131273	24.61	36.55
5	131830	24.71	36.55
5	132387	24.81	36.55
5	132944	24.91	36.55
5	133509	25.01	36.55
5	134066	25.11	36.55
5	134623	25.21	36.55
5	135180	25.31	36.55
5	135737	25.41	36.55
5	136294	25.51	36.55
5	136851	25.61	36.55
5	137408	25.71	36.55
5	137965	25.81	36.55
5	138522	25.91	36.55
5	139087	26.01	36.55
5	139644	26.11	36.55
5	140201	26.21	36.55
5	140758	26.31	36.55
5	141315	26.41	36.55
5	141872	26.51	36.55
5	142429	26.61	36.55
5	142986	26.71	36.55
5	143543	26.81	36.55
5	144100	26.91	36.55
5	144665	27.01	36.55
5	145222	27.11	36.55
5	145779	27.21	36.55
5	146336	27.31	36.55
5	146893	27.41	36.55
5	147450	27.51	36.55
5	148007	27.61	36.55
5	148564	27.71	36.55
5	149121	27.81	36.55
5	149678	27.91	36.55
5	150243	28.01	36.55
5	150800	28.11	36.55
5	151357	28.21	36.55
5	151914	28.31	36.55
5	152471	28.41	36.55
5	153028	28.51	36.55
5	153585	28.61	36.55
5	154142	28.71	36.55
5	154699	28.81	36.55
5	155256	28.91	36.55
5	155821	29.01	36.55
5	156378	29.11	36.55
5	156935	29.21	36.55
5	157492	29.31	36.55
5	158049	29.41	36.55
5	158606	29.51	36.55
5	159163	29.61	36.55
5	159720	29.71	36.55
5	160277	29.81	36.55
5	160834	29.91	36.55
5	161399	30.01	36.55
5	161956	30.11	36.55
5	162513	30.21	36.55
5	163070	30.31	36.55
5	163627	30.41	36.55
5	164184	30.51	36.55
5	164741	30.61	36.55
5	165298	30.71	36.55
5	165855	30.81	36.55
5	166412	30.91	36.55
5	166977	31.01	36.55
5	167534	31.11	36.55
5	168091	31.21	36.55
5	168648	31.31	36.55
5	169205	31.41	36.55
5	169762	31.51	36.55
5	170319	31.61	36.55
5	170876	31.71	36.55
5	171433	31.81	36.55
5	171990	31.91	36.55
5	172555	32.01	36.55
5	173112	32.11	36.55
5	173669	32.21	36.55
5	174226	32.31	36.55
5	174783	32.41	36.55
5	175340	32.51	36.55
5	175897	32.61	36.55
5	176454	32.71	36.55
5	177011	32.81	36.55
5	177568	32.91	36.55
5	178133	33.01	36.55
5	178690	33.11	36.55
5	179247	33.21	36.55
5	179804	33.31	36.55
5	180361	33.41	36.55
5	180918	33.51	36.55
5	181475	33.61	36.55
5	182032	33.71	36.55
5	182589	33.81	36.55
5	183146	33.91	36.55
5	183711	34.01	36.55
5	184268	34.11	36.55
5	184825	34.21	36.55
5	185382	34.31	36.55
5	185939	34.41	36.55
5	186496	34.51	36.55
5	187053	34.61	36.55
5	187610	34.71	36.55
5	188167	34.81	36.55
5	188724	34.91	36.55
5	189289	35.01	36.55
5	189846	35.11	36.55
5	190403	35.21	36.55
5	190960	35.31	36.55
5	191517	35.41	36.55
5	192074	35.51	36.55
5	192631	35.61	36.55
5	193188	35.71	36.55
5	193745	35.81	36.55
5	194302	35.91	36.55
5	194867	36.01	36.55
5	195424	36.11	36.55
5	195981	36.21	36.55
5	196538	36.31	36.55
5	197095	36.41	36.55
5	197652	36.51	36.55
5	198209	36.61	36.55
5	198766	36.71	36.55
5	199323	36.81	36.55
5	199880	36.91	36.55
5	200445	37.01	36.55
5	201002	37.11	36.55
5	201559	37.21	36.55
5	202116	37.31	36.55
5	202673	37.41	36.55
5	203230	37.51	36.55
5	203787	37.61	36.55
5	204344	37.71	36.55
5	204901	37.81	36.55
5	205458	37.91	36.55
5	206023	38.01	36.55
5	206580	38.11	36.55
5	207137	38.21	36.55
5	207694	38.31	36.55
5	208251	38.41	36.55
5	208808	38.51	36.55
5	209365	38.61	36.55
5	209922	38.71	36.55
5	210479	38.81	36.55
5	211036	38.91	36.55
5	211601	39.01	36.55
5	212158	39.11	36.55
5	212715	39.21	36.55
5	213272	39.31	36.55
5	213829	39.41	36.55
5	214386	39.51	36.55
5	214943	39.61	36.55
5	215500	39.71	36.55
5	216057	39.81	36.55
5	216614	39.91	36.55
5	217179	40.01	36.55
5	217736	40.11	36.55
5	218293	40.21	36.55
5	218850	40.31	36.55
5	219407	40.41	36.55
5	219964	40.51	36.55
5	220521	40.61	36.55
5	221078	40.71	36.55
5	221635	40.81	36.55
5	222192	40.91	36.55
5	222757	41.01	36.55
5	223314	41.11	36.55
5	223871	41.21	36.55
5	224428	41.31	36.55
5	224985	41.41	36.55
5	225542	41.51	36.55
5	226099	41.61	36.55
5	226656	41.71	36.55
5	227213	41.81	36.55
5	227770	41.91	36.55
5	228335	42.01	36.55
5	228892	42.11	36.55
5	229449	42.21	36.55
5	230006	42.31	36.55
5	230563	42.41	36.55
5	231120	42.51	36.55
5	231677	42.61	36.55
5	232234	42.71	36.55
5	232791	42.81	36.55
5	233348	42.91	36.55
5	233913	43.01	36.55
5	234470	43.11	36.55
5	235027	43.21	36.55
5	235584	43.31	36.55
5	236141	43.41	36.55
5	236698	43.51	36.55
5	237255	43.61	36.55
5	237812	43.71	36.55
5	238369	43.81	36.55
5	238926	43.91	36.55
5	239491	44.01	36.55
5	240048	44.11	36.55
5	240605	44.21	36.55
5	241162	44.31	36.55
5	241719	44.41	36.55
5	242276	44.51	36.55
5	242833	44.61	36.55
5	243390	44.71	36.55
5	243947	44.81	36.55
5	244504	44.91	36.55
5	245069	45.01	36.55
5	245626	45.11	36.55
5	246183	45.21	36.55
5	246740	45.31	36.55
5	247297	45.41	36.55
5	247854	45.51	36.55
5	248411	45.61	36.55
5	248968	45.71	36.55
5	249525	45.81	36.55
5	250082	45.91	36.55
5	250647	46.01	36.55
5	251204	46.11	36.55
5	251761	46.21	36.55
5	252318	46.31	36.55
5	252875	46.41	36.55
5	253432	46.51	36.55
5	253989	46.61	36.55
5	254546	46.71	36.55
5	255103	46.81	36.55
5	255660	46.91	36.55
5	256225	47.01	36.55
5	256782	47.11	36.55
5	257339	47.21	36.55
5	257896	47.31	36.55
5	258453	47.41	36.55
5	259010	47.51	36.55
5	259567	47.61	36.55
5	260124	47.71	36.55
5	260681	47.81	36.55
5	261238	47.91	36.55
5	261803	48.01	36.55
5	262360	48.11	36.55
5	262917	48.21	36.55
5	263474	48.31	36.55
5	264031	48.41	36.55
5	264588	48.51	36.55
5	265145	48.61	36.55
5	265702	48.71	36.55
5	266259	48.81	36.55
5	266816	48.91	36.55
5	267381	49.01	36.55
5	267938	49.11	36.55
5	268495	49.21	36.55
5	269052	49.31	36.55
5	269609	49.41	36.55
5	270166	49.51	36.55
5	270723	49.61	36.55
5	271280	49.71	36.55
5	271837	49.81	36.55
5	272394	49.91	36.55
5	272959	50.01	36.55
5	273516	50.11	36.55
5	274073	50.21	36.55
5	274630	50.31	36.55
5	275187	50.41	36.55
5	275744	50.51	36.55
5	276301	50.61	36.55
5	276858	50.71	36.55
5	277415	50.81	36.55
5	277972	50.91	36.55
5	278537	51.01	36.55
5	279094	51.11	36.55
5	279651	51.21	36.55
5	280208	51.31	36.55
5	280765	51.41	36.55
5	281322	51.51	36.55
5	281879	51.61	36.55
5	282436	51.71	36.55
5	282993	51.81	36.55
5	283550	51.91	36.55
5	284115	52.01	36.55
5	284672	52.11	36.55
5	285229	52.21	36.55
5	285786	52.31	36.55
5	286343	52.41	36.55
5	286900	52.51	36.55
5	287457	52.61	36.55
5	288014	52.71	36.55
5	288571	52.81	36.55
5	289128	52.91	36.55
5	289693	53.01	36.55
5	290250	53.11	36.55
5	290807	53.21	36.55
5	291364	53.31	36.55
5	291921	53.41	36.55
5	292478	53.51	36.55
5	293035	53.61	36.55
5	293592	53.71	36.55
5	294149	53.81	36.55
5	294706	53.91	36.55
5	295271	54.01	36.55
5	295828	54.11	36.55
5	296385	54.21	36.55
5	296942	54.31	36.55
5	297499	54.41	36.55
5	298056	54.51	36.55
5	298613	54.61	36.55
5	299170	54.71	36.55
5	299727	54.81	36.55
5	300284	54.91	36.55
5	300849	55.01	36.55
5	301406	55.11	36.55
5	301963	55.21	36.55
5	302520	55.31	36.55
5	303077	55.41	36.55
5	303634	55.51	36.55
5	304191	55.61	36.55
5	304748	55.71	36.55
5	305305	55.81	36.55
5	305862	55.91	36.55
5	306427	56.01	36.55
5	306984	56.11	36.55
5	307541	56.21	36.55
5	308098	56.31	36.55
5	308655	56.41	36.55
5	309212	56.51	36.55
5	309769	56.61	36.55
5	310326	56.71	36.55
5	310883	56.81	36.55
5	311440	56.91	36.55
5	312005	57.01	36.55
5	312562	57.11	36.55
5	313119	57.21	36.55
5	313676	57.31	36.55
5	314233	57.41	36.55
5	314790	57.51	36.55
5	315347	57.61	36.55
5	315904	57.71	36.55
5	316461	57.81	36.55
5	317018	57.91	36.55
5	317583	58.01	36.55
5	318140	58.11	36.55
5	318697	58.21	36.55
5	319254	58.31	36.55
5	319811	58.41	36.55
5	320368	58.51	36.55
5	320925	58.61	36.55
5	321482	58.71	36.55
5	322039	58.81	36.55
5	322596	58.91	36.55
5	323161	59.01	36.55
5	323718	59.11	36.55
5	324275	59.21	36.55
5	324832	59.31	36.55
5	325389	59.41	36.55
5	325946	59.51	36.55
5	326503	59.61	36.55
5	327060	59.71	36.55
5	327617	59.81	36.55
5	328174	59.91	36.55
4	232	1.11	217.60852546732
4	788	1.21	220.94185867614
4	1344	1.31	224.27519188903
4	1900	1.41	227.60852510742
4	2456	1.51	230.94185833239
4	3012	1.61	234.2751915647
4	3568	1.71	237.60852480484
4	4124	1.81	240.94185805307
4	4680	1.91	244.27519130948
4	5244	2.01	247.60852457396
4	5800	2.11	250.94185784631
4	6356	2.21	254.2751911262
4	6912	2.31	257.60852441324
4	7468	2.41	260.94185770697
4	8024	2.51	264.2751910069
4	8580	2.61	267.60852431253
4	9136	2.71	270.94185762331
4	9692	2.81	274.27519093873
4	10248	2.91	277.60852425828
4	10812	3.01	280.94185758147
4	11368	3.11	284.27519090781
4	11924	3.21	287.60852423687
4	12480	3.31	290.94185756824
4	13036	3.41	294.27519090154
4	13592	3.51	297.60852423643
4	14148	3.61	300.94185757258
4	14704	3.71	304.27519090972
4	15260	3.81	307.60852424761
4	15816	3.91	310.94185758603
4	16380	4.01	314.27519092479
4	16936	4.11	317.60852426374
4	17492	4.21	320.94185760273
4	18048	4.31	324.27519094167
4	18604	4.41	327.60852428045
4	19160	4.51	330.94185761902
4	19716	4.61	334.27519095731
4	20272	4.71	337.60852429528
4	20828	4.81	340.94185763292
4	21384	4.91	344.2751909702
4	21949	5.01	347.60852430711
4	22506	5.11	350.94185900895
4	23063	5.21	354.27542021214
4	23620	5.31	357.60998150836
4	24177	5.41	360.9467675253
4	24734	5.51	364.28732824667
4	25291	5.61	367.63339853494
4	25848	5.71	370.98666387468
4	26405	5.81	374.34852630635
4	26962	5.91	377.72013612329
4	27527	6.01	381.10243696664
4	28084	6.11	384.49620295086
4	28641	6.21	387.90206911938
4	29198	6.31	391.32055642903
4	29755	6.41	394.75209224585
4	30312	6.51	398.19702712717
4	30869	6.61	401.65561882291
4	31426	6.71	405.12782090013
4	31983	6.81	408.61310684228
4	32540	6.91	412.11048787304
4	33105	7.01	415.61854927959
4	33662	7.11	419.13549394744
4	34219	7.21	422.65919195064
4	34776	7.31	426.18723502986
4	35333	7.41	429.71699524812
4	35890	7.51	433.2457596782
4	36447	7.61	436.77103051374
4	37004	7.71	440.29074060943
4	37561	7.81	443.80319418614
4	38118	7.91	447.30700011435
4	38683	8.01	450.8010171833
4	39240	8.11	454.2843092027
4	39797	8.21	457.75610817043
4	40354	8.31	461.21578405727
4	40911	8.41	464.66282001981
4	41468	8.51	468.09679206643
4	42025	8.61	471.51735237634
4	42582	8.71	474.92421561533
4	43139	8.81	478.31714770999
4	43696	8.91	481.69595663857
4	44261	9.01	485.06048487637
4	44818	9.11	488.41060319827
4	45375	9.21	491.74620559465
4	45932	9.31	495.06720510071
4	46489	9.41	498.37353037503
4	47046	9.51	501.66512515558
4	47603	9.61	504.94218474275
4	48160	9.71	508.20557045786
4	48717	9.81	511.45677406331
4	49274	9.91	514.69781267214
4	49839	10.01	517.93112412386
4	50396	10.11	521.15946413531
4	50953	10.21	524.38580546574
4	51510	10.31	527.61307632907
4	52067	10.41	530.84379803446
4	52624	10.51	534.08004540775
4	53181	10.61	537.32352052883
4	53738	10.71	540.575619696
4	54295	10.81	543.83748836024
4	54852	10.91	547.11006619028
4	55417	11.01	550.39412404179
4	55974	11.11	553.69029428489
4	56531	11.21	556.99909568334
4	57088	11.31	560.32095380411
4	57645	11.41	563.65621776035
4	58202	11.51	567.00517394641
4	58759	11.61	570.36805730543
4	59316	11.71	573.74506057262
4	59873	11.81	577.13634185797
4	60430	11.91	580.54201606734
4	60995	12.01	583.96187817095
4	61552	12.11	587.39508285284
4	62109	12.21	590.84020101167
4	62666	12.31	594.29530675681
4	63223	12.41	597.75806619952
4	63780	12.51	601.22582667619
4	64337	12.61	604.69570597864
4	64894	12.71	608.16481535771
4	65451	12.81	611.630609039
4	66008	12.91	615.09098791773
4	66573	13.01	618.54422999689
4	67130	13.11	621.98892263916
4	67687	13.21	625.4239069899
4	68244	13.31	628.84823238469
4	68801	13.41	632.2611189476
4	69358	13.51	635.6619269087
4	69915	13.61	639.05013143385
4	70472	13.71	642.42530197625
4	71029	13.81	645.78708533755
4	71586	13.91	649.1351917721
4	72151	14.01	652.46938358753
4	72708	14.11	655.78946579332
4	73265	14.21	659.09527842934
4	73822	14.31	662.38669027256
4	74379	14.41	665.66359445542
4	74936	14.51	668.92605751579
4	75493	14.61	672.17469475969
4	76050	14.71	675.41074992173
4	76607	14.81	678.63600881927
4	77164	14.91	681.8527049365
4	77729	15.01	685.06342487551
4	78286	15.11	688.27101455469
4	78843	15.21	691.47841684778
4	79400	15.31	694.68834090801
4	79957	15.41	697.90302847112
4	80514	15.51	701.12431854123
4	81071	15.61	704.35371974223
4	81628	15.71	707.59246967116
4	82185	15.81	710.84158358867
4	82742	15.91	714.10189436208
4	83307	16.01	717.3740852327
4	83864	16.11	720.65871669637
4	84421	16.21	723.9562485549
4	84978	16.31	727.26705800592
4	85535	16.41	730.59145448287
4	86092	16.51	733.92969182895
4	86649	16.61	737.28197828398
4	87206	16.71	740.64848467715
4	87763	16.81	744.02935114792
4	88320	16.91	747.42469164495
4	88885	17.01	750.83440966426
4	89442	17.11	754.2578068356
4	89999	17.21	757.6935694977
4	90556	17.31	761.13985835375
4	91113	17.41	764.5944008917
4	91670	17.51	768.05458403696
4	92227	17.61	771.51754632214
4	92784	17.71	774.98036210215
4	93341	17.81	778.44037911283
4	93898	17.91	781.89540538234
4	94463	18.01	785.34364273031
4	95020	18.11	788.78361602255
4	95577	18.21	792.21411513521
4	96134	18.31	795.63414734525
4	96691	18.41	799.04289827404
4	97248	18.51	802.43969984741
4	97805	18.61	805.82400401189
4	98362	18.71	809.19536117273
4	98919	18.81	812.55340250564
4	99476	18.91	815.89782544624
4	100041	19.01	819.22838178637
4	100598	19.11	822.54486790888
4	101155	19.21	825.84711677677
4	101712	19.31	829.13499136155
4	102269	19.41	832.40838017083
4	102826	19.51	835.66736837054
4	103383	19.61	838.91262349764
4	103940	19.71	842.14543328631
4	104497	19.81	845.36761719628
4	105054	19.91	848.58143325418
4	105619	20.01	851.78948469926
4	106176	20.11	854.99462720976
4	106733	20.21	858.19979277767
4	107290	20.31	861.4076546991
4	107847	20.41	864.62042334506
4	108404	20.51	867.83991198965
4	108961	20.61	871.0676081492
4	109518	20.71	874.30473210518
4	110075	20.81	877.55228491345
4	110632	20.91	880.81108778846
4	111197	21.01	884.0818144121
4	111754	21.11	887.36501743815
4	112311	21.21	890.66115023521
4	112868	21.31	893.97058472345
4	113425	21.41	897.29362600692
4	113982	21.51	900.63052437724
4	114539	21.61	903.98148516069
4	115096	21.71	907.34667679635
4	115653	21.81	910.72623746293
4	116210	21.91	914.12027956643
4	116775	22.01	917.52871381465
4	117332	22.11	920.95086124786
4	117889	22.21	924.38542450584
4	118446	22.31	927.83057676152
4	119003	22.41	931.28405460596
4	119560	22.51	934.74325114258
4	120117	22.61	938.20530853689
4	120674	22.71	941.66729714158
4	121231	22.81	945.12655145159
4	121788	22.91	948.58086791212
4	122353	23.01	952.02843884072
4	122910	23.11	955.46778130816
4	123467	23.21	958.89767879598
4	124024	23.31	962.31713333533
4	124581	23.41	965.72532624414
4	125138	23.51	969.12158591799
4	125695	23.61	972.50536140733
4	126252	23.71	975.87620074162
4	126809	23.81	979.23373314762
4	127366	23.91	982.57765446211
4	127931	24.01	985.90771516532
4	128488	24.11	989.22371056412
4	129045	24.21	992.52547273888
4	129602	24.31	995.81286393697
4	130159	24.41	999.08577209085
4	130716	24.51	1002.3442849611
4	131273	24.61	1005.5890772683
4	131830	24.71	1008.8214428004
4	132387	24.81	1012.0432056503
4	132944	24.91	1015.2566272294
4	133509	25.01	1018.4643130769
4	134066	25.11	1021.6691202269
4	134623	25.21	1024.8739791967
4	135180	25.31	1028.0815583823
4	135737	25.41	1031.2940638679
4	136294	25.51	1034.5133054108
4	136851	25.61	1037.7407676423
4	137408	25.71	1040.9776684773
4	137965	25.81	1044.2250070301
4	138522	25.91	1047.4836029224
4	139087	26.01	1050.7541285296
4	139644	26.11	1054.0371354336
4	140201	26.21	1057.3330761237
4	140758	26.31	1060.6423217988
4	141315	26.41	1063.9651769711
4	141872	26.51	1067.301891447
4	142429	26.61	1070.6526701544
4	142986	26.71	1074.0176812057
4	143543	26.81	1077.3970625116
4	144100	26.91	1080.7909262654
4	144665	27.01	1084.199184138
4	145222	27.11	1087.6211598356
4	145779	27.21	1091.0555582447
4	146336	27.31	1094.5005542577
4	146893	27.41	1097.9538857218
4	147450	27.51	1101.4129465942
4	148007	27.61	1104.8748795437
4	148564	27.71	1108.3367543759
4	149121	27.81	1111.7959037676
4	149678	27.91	1115.2501225733
4	150243	28.01	1118.6976018056
4	150800	28.11	1122.1368574649
4	151357	28.21	1125.5666721546
4	151914	28.31	1128.9860471853
4	152471	28.41	1132.3941632841
4	153028	28.51	1135.7903483617
4	153585	28.61	1139.1740510709
4	154142	28.71	1142.5448191149
4	154699	28.81	1145.9022814527
4	155256	28.91	1149.2461337016
4	155821	29.01	1152.5761261617
4	156378	29.11	1155.8920539921
4	156935	29.21	1159.193749152
4	157492	29.31	1162.4810737893
4	158049	29.41	1165.7539157574
4	158606	29.51	1169.0123631745
4	159163	29.61	1172.2570917504
4	159720	29.71	1175.4893961069
4	160277	29.81	1178.7111009749
4	160834	29.91	1181.924468232
4	161399	30.01	1185.1321037343
4	161956	30.11	1188.3368647026
4	162513	30.21	1191.5416814512
4	163070	30.31	1194.7492217014
4	163627	30.41	1197.9616909471
4	164184	30.51	1201.1808984613
4	164741	30.61	1204.4083284781
4	165298	30.71	1207.6451985864
4	165855	30.81	1210.8925076333
4	166412	30.91	1214.1510750213
4	166977	31.01	1217.4215729456
4	167534	31.11	1220.7045528407
4	168091	31.21	1224.0004670747
4	168648	31.31	1227.3096867473
4	169205	31.41	1230.6325162892
4	169762	31.51	1233.9692054398
4	170319	31.61	1237.3199590724
4	170876	31.71	1240.6849452543
4	171433	31.81	1244.0643018593
4	171990	31.91	1247.4581410513
4	172555	32.01	1250.8663746341
4	173112	32.11	1254.2883266808
4	173669	32.21	1257.7227023874
4	174226	32.31	1261.1676768832
4	174783	32.41	1264.6209881883
4	175340	32.51	1268.0800303774
4	175897	32.61	1271.5419461887
4	176454	32.71	1275.0038053525
4	177011	32.81	1278.4629402951
4	177568	32.91	1281.9171456521
4	178133	33.01	1285.3646122563
4	178690	33.11	1288.8038559606
4	179247	33.21	1292.2336592475
4	179804	33.31	1295.6530233285
4	180361	33.41	1299.0611288492
4	180918	33.51	1302.4573036536
4	181475	33.61	1305.8409963397
4	182032	33.71	1309.2117545657
4	182589	33.81	1312.5692072539
4	183146	33.91	1315.9130499913
4	183711	34.01	1319.2430330531
4	184268	34.11	1322.5589515782
4	184825	34.21	1325.860637509
4	185382	34.31	1329.1479529797
4	185939	34.41	1332.4207858329
4	186496	34.51	1335.6792242359
4	187053	34.61	1338.923944035
4	187610	34.71	1342.1562399665
4	188167	34.81	1345.3779368493
4	188724	34.91	1348.5912966254
4	189289	35.01	1351.7989251942
4	189846	35.11	1355.0036798025
4	190403	35.21	1358.2084907365
4	190960	35.31	1361.4160256246
4	191517	35.41	1364.6284898794
4	192074	35.51	1367.8476927072
4	192631	35.61	1371.0751182875
4	193188	35.71	1374.3119841643
4	193745	35.81	1377.5592891477
4	194302	35.91	1380.8178526101
4	194867	36.01	1384.088346722
4	195424	36.11	1387.3713228975
4	195981	36.21	1390.6672334881
4	196538	36.31	1393.9764495796
4	197095	36.41	1397.2992755918
4	197652	36.51	1400.6359612547
4	198209	36.61	1403.986711434
4	198766	36.71	1407.3516941909
4	199323	36.81	1410.7310473942
4	199880	36.91	1414.1248832037
4	200445	37.01	1417.5331134412
4	201002	37.11	1420.9550622309
4	201559	37.21	1424.3894348109
4	202116	37.31	1427.8344063434
4	202673	37.41	1431.2877148722
4	203230	37.51	1434.7467544883
4	203787	37.61	1438.2086679395
4	204344	37.71	1441.6705249454
4	204901	37.81	1445.1296578982
4	205458	37.91	1448.583861403
4	206023	38.01	1452.031326268
4	206580	38.11	1455.4705683259
4	207137	38.21	1458.9003700425
4	207694	38.31	1462.3197326155
4	208251	38.41	1465.7278366795
4	208808	38.51	1469.1240100691
4	209365	38.61	1472.5077013748
4	209922	38.71	1475.8784582487
4	210479	38.81	1479.235909608
4	211036	38.91	1482.5797510355
4	211601	39.01	1485.909732803
4	212158	39.11	1489.2256500465
4	212715	39.21	1492.5273347063
4	213272	39.31	1495.8146489146
4	213829	39.41	1499.0874805125
4	214386	39.51	1502.3459176742
4	214943	39.61	1505.5906362645
4	215500	39.71	1508.8229310357
4	216057	39.81	1512.0446268189
4	216614	39.91	1515.2579855646
4	217179	40.01	1518.4656131786
4	217736	40.11	1521.670366911
4	218293	40.21	1524.8751770442
4	218850	40.31	1528.0827111939
4	219407	40.41	1531.2951747614
4	219964	40.51	1534.5143769438
4	220521	40.61	1537.7418019131
4	221078	40.71	1540.9786672071
4	221635	40.81	1544.2259716309
4	222192	40.91	1547.4845345527
4	222757	41.01	1550.7550281395
4	223314	41.11	1554.0380038028
4	223871	41.21	1557.3339138916
4	224428	41.31	1560.64312949
4	224985	41.41	1563.9659550161
4	225542	41.51	1567.3026401986
4	226099	41.61	1570.6533899024
4	226656	41.71	1574.0183721876
4	227213	41.81	1577.3977249224
4	227770	41.91	1580.791560266
4	228335	42.01	1584.1997900429
4	228892	42.11	1587.621738384
4	229449	42.21	1591.0561105335
4	230006	42.31	1594.5010816578
4	230563	42.41	1597.9543898043
4	231120	42.51	1601.4134290661
4	231677	42.61	1604.8753421921
4	232234	42.71	1608.3371989009
4	232791	42.81	1611.7963315796
4	233348	42.91	1615.2505348294
4	233913	43.01	1618.6979994549
4	234470	43.11	1622.1372412861
4	235027	43.21	1625.5670427864
4	235584	43.31	1628.9864051518
4	236141	43.41	1632.3945090151
4	236698	43.51	1635.7906822098
4	237255	43.61	1639.1743733255
4	237812	43.71	1642.5451300132
4	238369	43.81	1645.9025811894
4	238926	43.91	1649.2464224365
4	239491	44.01	1652.5764040258
4	240048	44.11	1655.8923210929
4	240605	44.21	1659.1940055776
4	241162	44.31	1662.481319612
4	241719	44.41	1665.7541510371
4	242276	44.51	1669.0125880277
4	242833	44.61	1672.2573064516
4	243390	44.71	1675.489601063
4	243947	44.81	1678.7112966947
4	244504	44.91	1681.9246552986
4	245069	45.01	1685.1322827811
4	245626	45.11	1688.3370363929
4	246183	45.21	1691.5418464158
4	246740	45.31	1694.7493804638
4	247297	45.41	1697.9618439366
4	247854	45.51	1701.1810460302
4	248411	45.61	1704.4084709153
4	248968	45.71	1707.645336129
4	249525	45.81	1710.8926404758
4	250082	45.91	1714.1512033231
4	250647	46.01	1717.4216968377
4	251204	46.11	1720.7046724303
4	251761	46.21	1724.0005824501
4	252318	46.31	1727.3097979806
4	252875	46.41	1730.6326234397
4	253432	46.51	1733.9693085561
4	253989	46.61	1737.3200581943
4	254546	46.71	1740.6850404146
4	255103	46.81	1744.0643930849
4	255660	46.91	1747.4582283644
4	256225	47.01	1750.8664580778
4	256782	47.11	1754.2884063571
4	257339	47.21	1757.7227784473
4	257896	47.31	1761.1677495154
4	258453	47.41	1764.6210576093
4	259010	47.51	1768.0800968222
4	259567	47.61	1771.5420099035
4	260124	47.71	1775.0038665714
4	260681	47.81	1778.4629992124
4	261238	47.91	1781.917202427
4	261803	48.01	1785.3646670195
4	262360	48.11	1788.8039088195
4	262917	48.21	1792.23371029
4	263474	48.31	1795.6530726268
4	264031	48.41	1799.0611764624
4	264588	48.51	1802.4573496304
4	265145	48.61	1805.8410407198
4	265702	48.71	1809.2117973819
4	266259	48.81	1812.5692485329
4	266816	48.91	1815.9130897552
4	267381	49.01	1819.2430713199
4	267938	49.11	1822.5589883627
4	268495	49.21	1825.8606728233
4	269052	49.31	1829.1479868338
4	269609	49.41	1832.420818235
4	270166	49.51	1835.6792552021
4	270723	49.61	1838.9239736031
4	271280	49.71	1842.1562681925
4	271837	49.81	1845.3779638034
4	272394	49.91	1848.5913223877
4	272959	50.01	1851.7989498521
4	273516	50.11	1855.0037034472
4	274073	50.21	1858.208513455
4	274630	50.31	1861.416047489
4	275187	50.41	1864.6285109487
4	275744	50.51	1867.8477130301
4	276301	50.61	1871.0751379036
4	276858	50.71	1874.3120031063
4	277415	50.81	1877.5593074425
4	277972	50.91	1880.8178702795
4	278537	51.01	1884.0883637841
4	279094	51.11	1887.3713393671
4	279651	51.21	1890.6672493773
4	280208	51.31	1893.9764648984
4	280765	51.41	1897.2992903483
4	281322	51.51	1900.6359754556
4	281879	51.61	1903.9867250848
4	282436	51.71	1907.3517072962
4	282993	51.81	1910.7310599576
4	283550	51.91	1914.1248952282
4	284115	52.01	1917.5331249329
4	284672	52.11	1920.9550732037
4	285229	52.21	1924.3894452857
4	285786	52.31	1927.8344163461
4	286343	52.41	1931.2877244327
4	286900	52.51	1934.7467636389
4	287457	52.61	1938.2086767141
4	288014	52.71	1941.6705333763
4	288571	52.81	1945.1296660121
4	289128	52.91	1948.5838692218
4	289693	53.01	1952.0313338099
4	290250	53.11	1955.4705756055
4	290807	53.21	1958.9003770719
4	291364	53.31	1962.3197394048
4	291921	53.41	1965.7278432366
4	292478	53.51	1969.1240164009
4	293035	53.61	1972.5077074867
4	293592	53.71	1975.8784641452
4	294149	53.81	1979.2359152928
4	294706	53.91	1982.5797565116
4	295271	54.01	1985.909738073
4	295828	54.11	1989.2256551124
4	296385	54.21	1992.5273395697
4	296942	54.31	1995.8146535769
4	297499	54.41	1999.0874849749
4	298056	54.51	2002.3459219387
4	298613	54.61	2005.5906403365
4	299170	54.71	2008.8229349229
4	299727	54.81	2012.0446305309
4	300284	54.91	2015.2579891125
4	300849	55.01	2018.4656165744
4	301406	55.11	2021.6703701673
4	301963	55.21	2024.875180173
4	302520	55.31	2028.082714205
4	303077	55.41	2031.295177663
4	303634	55.51	2034.5143797426
4	304191	55.61	2037.7418046146
4	304748	55.71	2040.9786698157
4	305305	55.81	2044.2259741504
4	305862	55.91	2047.484536986
4	306427	56.01	2050.7550304893
4	306984	56.11	2054.0380060709
4	307541	56.21	2057.3339160798
4	308098	56.31	2060.6431315996
4	308655	56.41	2063.9659570483
4	309212	56.51	2067.3026421543
4	309769	56.61	2070.6533917823
4	310326	56.71	2074.0183739924
4	310883	56.81	2077.3977266526
4	311440	56.91	2080.791561922
4	312005	57.01	2084.1997916255
4	312562	57.11	2087.6217398951
4	313119	57.21	2091.056111976
4	313676	57.31	2094.5010830353
4	314233	57.41	2097.9543911209
4	314790	57.51	2101.4134303263
4	315347	57.61	2104.8753434005
4	315904	57.71	2108.337200062
4	316461	57.81	2111.796332697
4	317018	57.91	2115.2505359061
4	317583	58.01	2118.6980004935
4	318140	58.11	2122.1372422886
4	318697	58.21	2125.5670437544
4	319254	58.31	2128.9864060867
4	319811	58.41	2132.3945099181
4	320368	58.51	2135.7906830818
4	320925	58.61	2139.1743741672
4	321482	58.71	2142.5451308252
4	322039	58.81	2145.9025819723
4	322596	58.91	2149.2464231906
4	323161	59.01	2152.5764047515
4	323718	59.11	2155.8923217905
4	324275	59.21	2159.1940062473
4	324832	59.31	2162.4813202541
4	325389	59.41	2165.7541516516
4	325946	59.51	2169.012588615
4	326503	59.61	2172.2573070123
4	327060	59.71	2175.4896015983
4	327617	59.81	2178.7112972059
4	328174	59.91	2181.9246557872
3	232	1.11	33.333332070582
3	788	1.21	33.333332100049
3	1344	1.31	33.333332146342
3	1900	1.41	33.333332205608
3	2456	1.51	33.333332274454
3	3012	1.61	33.333332349923
3	3568	1.71	33.333332429473
3	4124	1.81	33.333332510943
3	4680	1.91	33.333332592527
3	5244	2.01	33.333332672741
3	5800	2.11	33.333332750393
3	6356	2.21	33.33333282455
3	6912	2.31	33.33333289451
3	7468	2.41	33.333332959772
3	8024	2.51	33.33333302001
3	8580	2.61	33.333333075046
3	9136	2.71	33.333333124827
3	9692	2.81	33.333333169405
3	10248	2.91	33.333333208914
3	10812	3.01	33.333333243557
3	11368	3.11	33.333333273586
3	11924	3.21	33.333333299293
3	12480	3.31	33.333333320991
3	13036	3.41	33.333333339013
3	13592	3.51	33.333333353695
3	14148	3.61	33.333333365375
3	14704	3.71	33.333333374381
3	15260	3.81	33.333333381033
3	15816	3.91	33.333333385635
3	16380	4.01	33.333333388471
3	16936	4.11	33.33333338981
3	17492	4.21	33.333333389894
3	18048	4.31	33.33333338895
3	18604	4.41	33.333333387177
3	19160	4.51	33.333333384757
3	19716	4.61	33.333333381849
3	20272	4.71	33.333333378594
3	20828	4.81	33.333333375112
3	21384	4.91	33.333333371506
3	21949	5.01	33.333333367863
3	22506	5.11	33.333401628544
3	23063	5.21	33.337615197889
3	23620	5.31	33.351331457648
3	24177	5.41	33.378611875711
3	24734	5.51	33.422277525915
3	25291	5.61	33.483619363034
3	25848	5.71	33.560883289289
3	26405	5.81	33.651214374853
3	26962	5.91	33.75226508234
3	27527	6.01	33.862109613447
3	28084	6.11	33.97916814281
3	28641	6.21	34.102144663378
3	29198	6.31	34.229975997969
3	29755	6.41	34.36178997099
3	30312	6.51	34.49686951103
3	30869	6.61	34.63394454499
3	31426	6.71	34.768907460539
3	31983	6.81	34.896940693623
3	32540	6.91	35.013537294543
3	33105	7.01	35.114580456764
3	33662	7.11	35.196411611993
3	34219	7.21	35.255886909516
3	34776	7.31	35.290421999417
3	35333	7.41	35.298048086563
3	35890	7.51	35.278759124112
3	36447	7.61	35.23598770154
3	37004	7.71	35.17395248273
3	37561	7.81	35.096114241429
3	38118	7.91	35.005312017494
3	38683	8.01	34.903874812445
3	39240	8.11	34.79371321872
3	39797	8.21	34.676394587578
3	40354	8.31	34.553204692958
3	40911	8.41	34.425198317326
3	41468	8.51	34.293240749685
3	42025	8.61	34.158041828395
3	42582	8.71	34.020183868152
3	43139	8.81	33.880144569824
3	43696	8.91	33.738315814505
3	44261	9.01	33.595019081188
3	44818	9.11	33.450518094614
3	45375	9.21	33.30502920093
3	45932	9.31	33.158729879327
3	46489	9.41	33.011765724558
3	47046	9.51	32.864353863035
3	47603	9.61	32.721012496936
3	48160	9.71	32.588643994693
3	48717	9.81	32.473185082585
3	49274	9.91	32.37952165218
3	49839	10.01	32.31149760861
3	50396	10.11	32.271937243073
3	50953	10.21	32.262628456892
3	51510	10.31	32.281431757463
3	52067	10.41	32.323804768138
3	52624	10.51	32.385513150424
3	53181	10.61	32.463083271939
3	53738	10.71	32.553665544264
3	54295	10.81	32.654922312383
3	54852	10.91	32.764935884979
3	55417	11.01	32.88213308724
3	55974	11.11	33.005223367884
3	56531	11.21	33.13314802536
3	57088	11.31	33.265038555652
3	57645	11.41	33.400182482965
3	58202	11.51	33.537995328993
3	58759	11.61	33.677997617952
3	59316	11.71	33.819796012697
3	59873	11.81	33.96306783977
3	60430	11.91	34.107141747152
3	60995	12.01	34.246982852793
3	61552	12.11	34.376202942323
3	62109	12.21	34.489264817717
3	62666	12.31	34.581509590607
3	63223	12.41	34.649169726167
3	63780	12.51	34.689368787218
3	64337	12.61	34.7001510107
3	64894	12.71	34.682882928545
3	65451	12.81	34.641769331689
3	66008	12.91	34.581094107388
3	66573	13.01	34.504371535269
3	67130	13.11	34.414484548651
3	67687	13.21	34.313798156979
3	68244	13.31	34.204252491731
3	68801	13.41	34.087439136468
3	69358	13.51	33.964663744057
3	69915	13.61	33.836997404607
3	70472	13.71	33.705318785069
3	71029	13.81	33.570348698382
3	71586	13.91	33.432678462216
3	72151	14.01	33.292793163015
3	72708	14.11	33.151090740619
3	73265	14.21	33.0078976443
3	73822	14.31	32.863481676162
3	74379	14.41	32.718101580034
3	74936	14.51	32.574886427257
3	75493	14.61	32.440114751869
3	76050	14.71	32.319814522883
3	76607	14.81	32.219077485442
3	77164	14.91	32.142048757657
3	77729	15.01	32.091930244201
3	78286	15.11	32.070975264143
3	78843	15.21	32.079224413257
3	79400	15.31	32.112939343728
3	79957	15.41	32.167545084638
3	80514	15.51	32.239288566376
3	81071	15.61	32.325090964666
3	81628	15.71	32.422426571247
3	82185	15.81	32.529223425642
3	82742	15.91	32.643781798595
3	83307	16.01	32.764707320103
3	83864	16.11	32.890856121102
3	84421	16.21	33.021289830551
3	84978	16.31	33.155238657363
3	85535	16.41	33.292071104728
3	86092	16.51	33.43126912531
3	86649	16.61	33.572407739859
3	87206	16.71	33.715138317369
3	87763	16.81	33.859174858989
3	88320	16.91	34.00423217336
3	88885	17.01	34.146527003479
3	89442	17.11	34.279561763556
3	89999	17.21	34.397486339902
3	90556	17.31	34.49536634699
3	91113	17.41	34.569194390325
3	91670	17.51	34.615887710296
3	92227	17.61	34.633302198405
3	92784	17.71	34.621906345921
3	93341	17.81	34.585610022692
3	93898	17.91	34.528886640621
3	94463	18.01	34.455405955556
3	95020	18.11	34.368178445471
3	95577	18.21	34.269673750852
3	96134	18.31	34.161917837073
3	96691	18.41	34.046572701384
3	97248	18.51	33.925001760404
3	97805	18.61	33.798323490638
3	98362	18.71	33.667455432386
3	98919	18.81	33.533150288272
3	99476	18.91	33.396025536615
3	100041	19.01	33.256587724703
3	100598	19.11	33.115252397745
3	101155	19.21	32.972360447543
3	101712	19.31	32.828191524111
3	102269	19.41	32.683020974216
3	102826	19.51	32.540389451904
3	103383	19.61	32.406715289624
3	103940	19.71	32.287914451662
3	104497	19.81	32.188979592244
3	105054	19.91	32.113969109672
3	105619	20.01	32.066009892824
3	106176	20.11	32.047286503659
3	106733	20.21	32.057518927939
3	107290	20.31	32.092860834819
3	107847	20.41	32.148801263061
3	108404	20.51	32.221639653283
3	108961	20.61	32.308340257886
3	109518	20.71	32.406412706488
3	110075	20.81	32.513814027983
3	110632	20.91	32.628868274494
3	111197	21.01	32.750200585031
3	111754	21.11	32.87668309472
3	112311	21.21	33.007390561525
3	112868	21.31	33.141563964718
3	113425	21.41	33.278580642935
3	113982	21.51	33.417929796984
3	114539	21.61	33.559192393615
3	115096	21.71	33.702024679617
3	115653	21.81	33.846144657624
3	116210	21.91	33.99127355855
3	116775	22.01	34.133781378533
3	117332	22.11	34.267219468202
3	117889	22.21	34.385696284949
3	118446	22.31	34.484240786262
3	119003	22.41	34.558813492781
[...]
166	325346	59.389463317641	7
166	325903	59.489463556669	7
166	326460	59.589463796425	7
166	327017	59.689464036809	7
166	327574	59.789464277734	7
166	328131	59.889464519125	7
166	328688	59.989464760925	7
165	1000	1.241824881995	7
165	1556	1.341824643214	7
165	2112	1.441824404433	7
165	2668	1.541824165652	7
165	3224	1.641823926871	7
165	3780	1.74182368809	7
165	4336	1.841823449309	7
165	4892	1.941823210528	7
165	5456	2.041822971747	7
165	6012	2.141822732966	7
165	6568	2.241822494185	7
165	7124	2.341822255404	7
165	7680	2.441822016623	7
165	8236	2.541821777842	7
165	8792	2.641821539061	7
165	9348	2.74182130028	7
165	9904	2.841821061499	7
165	10460	2.941820822718	7
165	11024	3.041820583937	7
165	11580	3.141820345156	7
165	12136	3.241820106375	7
165	12692	3.341819867594	7
165	13248	3.441819628813	7
165	13804	3.541819390032	7
165	14360	3.641819151251	7
165	14916	3.74181891247	7
165	15472	3.841818673689	7
165	16028	3.941818434908	7
165	16592	4.041818196127	7
165	17148	4.141817957346	7
165	17704	4.241817718565	7
165	18260	4.341817479784	7
165	18816	4.441817241003	7
165	19372	4.541817002222	7
165	19928	4.641816763441	7
165	20484	4.74181652466	7
165	21040	4.841816285879	7
165	21596	4.941816047098	7
165	22161	5.041815808317	7
165	22718	5.141815569536	7
165	23275	5.241815330757	7
165	23832	5.341828091987	7
165	24389	5.441827853233	7
165	24946	5.541827614512	7
165	25503	5.641827375836	7
165	26060	5.741827137223	7
165	26617	5.841826898685	7
165	27174	5.941826660237	7
165	27739	6.041826421888	7
165	28296	6.141826183645	7
165	28853	6.241825945518	7
165	29410	6.341825707513	7
165	29967	6.441825469633	7
165	30524	6.541825231887	7
165	31081	6.641824994276	7
165	31638	6.741824756802	7
165	32195	6.841824519462	7
165	32752	6.941824282254	7
165	33317	7.041824045165	7
165	33874	7.141823808181	7
165	34431	7.241823571286	7
165	34988	7.34182333446	7
165	35545	7.44182309768	7
165	36102	7.541822860921	7
165	36659	7.641822624164	7
165	37216	7.741822387389	7
165	37773	7.841822150576	7
165	38330	7.941821913711	7
165	38895	8.041821676781	7
165	39452	8.141821439778	7
165	40009	8.241821202695	7
165	40566	8.341820965521	7
165	41123	8.44182072825	7
165	41680	8.541820490876	7
165	42237	8.641820253393	7
165	42794	8.741820015797	7
165	43351	8.841819778083	7
165	43908	8.941819540243	7
165	44473	9.041819302279	7
165	45030	9.141819064181	7
165	45587	9.241818825947	7
165	46144	9.341818587579	7
165	46701	9.441818349068	7
165	47258	9.54181811041	7
165	47815	9.641817871607	7
165	48372	9.74181763266	7
165	48929	9.841817393579	7
165	49486	9.941817154382	7
165	50051	10.04181691508	7
165	50608	10.141816675703	7
165	51165	10.241816436271	7
165	51722	10.341816196812	7
165	52279	10.44181595735	7
165	52836	10.541815717904	7
165	53393	10.641815478488	7
165	53950	10.74181523912	7
165	54507	10.841827999808	7
165	55064	10.941827760565	7
165	55629	11.0418275214	7
165	56186	11.141827282322	7
165	56743	11.241827043333	7
165	57300	11.341826804444	7
165	57857	11.44182656566	7
165	58414	11.541826326984	7
165	58971	11.641826088422	7
165	59528	11.741825849976	7
165	60085	11.841825611653	7
165	60642	11.941825373454	7
165	61207	12.041825135381	7
165	61764	12.141824897429	7
165	62321	12.241824659593	7
165	62878	12.341824421856	7
165	63435	12.4418241842	7
165	63992	12.541823946606	7
165	64549	12.641823709045	7
165	65106	12.741823471496	7
165	65663	12.841823233937	7
165	66220	12.941822996346	7
165	66785	13.041822758706	7
165	67342	13.141822521003	7
165	67899	13.241822283228	7
165	68456	13.341822045369	7
165	69013	13.441821807416	7
165	69570	13.541821569363	7
165	70127	13.641821331204	7
165	70684	13.741821092933	7
165	71241	13.841820854543	7
165	71798	13.941820616028	7
165	72363	14.041820377388	7
165	72920	14.141820138616	7
165	73477	14.24181989971	7
165	74034	14.341819660664	7
165	74591	14.441819421478	7
165	75148	14.541819182147	7
165	75705	14.641818942674	7
165	76262	14.741818703068	7
165	76819	14.841818463337	7
165	77376	14.9418182235	7
165	77941	15.04181798358	7
165	78498	15.141817743598	7
165	79055	15.24181750358	7
165	79612	15.341817263552	7
165	80169	15.441817023534	7
165	80726	15.541816783543	7
165	81283	15.641816543596	7
165	81840	15.741816303706	7
165	82397	15.841816063882	7
165	82954	15.941815824135	7
165	83519	16.041815584473	7
165	84076	16.141815344903	7
165	84633	16.241828105432	7
165	85190	16.341827866066	7
165	85747	16.441827626807	7
165	86304	16.541827387664	7
165	86861	16.64182714864	7
165	87418	16.741826909739	7
165	87975	16.841826670963	7
165	88532	16.941826432321	7
165	89097	17.04182619381	7
165	89654	17.14182595543	7
165	90211	17.241825717169	7
165	90768	17.341825479019	7
165	91325	17.441825240961	7
165	91882	17.541825002972	7
165	92439	17.641824765032	7
165	92996	17.741824527114	7
165	93553	17.841824289195	7
165	94110	17.941824051253	7
165	94675	18.04182381327	7
165	95232	18.141823575235	7
165	95789	18.241823337133	7
165	96346	18.341823098956	7
165	96903	18.441822860692	7
165	97460	18.541822622336	7
165	98017	18.641822383881	7
165	98574	18.74182214532	7
165	99131	18.841821906646	7
165	99688	18.941821667855	7
165	100253	19.041821428945	7
165	100810	19.141821189908	7
165	101367	19.241820950743	7
165	101924	19.341820711446	7
165	102481	19.441820472012	7
165	103038	19.541820232441	7
165	103595	19.641819992733	7
165	104152	19.741819752898	7
165	104709	19.841819512946	7
165	105266	19.941819272897	7
165	105831	20.041819032771	7
165	106388	20.141818792592	7
165	106945	20.241818552386	7
165	107502	20.341818312175	7
165	108059	20.44181807198	7
165	108616	20.541817831821	7
165	109173	20.641817591713	7
165	109730	20.741817351665	7
165	110287	20.841817111692	7
165	110844	20.941816871803	7
165	111409	21.041816632003	7
165	111966	21.1418163923	7
165	112523	21.241816152703	7
165	113080	21.341815913214	7
165	113637	21.441815673839	7
165	114194	21.541815434584	7
165	114751	21.641815195452	7
165	115308	21.741827956451	7
165	115865	21.84182771758	7
165	116422	21.941827478845	7
165	116987	22.041827240246	7
165	117544	22.141827001781	7
165	118101	22.241826763442	7
165	118658	22.341826525218	7
165	119215	22.441826287089	7
165	119772	22.541826049037	7
165	120329	22.641825811036	7
165	120886	22.741825573063	7
165	121443	22.841825335094	7
165	122000	22.941825097105	7
165	122565	23.04182485908	7
165	123122	23.141824621008	7
165	123679	23.241824382873	7
165	124236	23.341824144666	7
165	124793	23.441823906376	7
165	125350	23.541823667996	7
165	125907	23.641823429521	7
165	126464	23.741823190944	7
165	127021	23.84182295226	7
165	127578	23.941822713462	7
165	128143	24.041822474546	7
165	128700	24.141822235508	7
165	129257	24.241821996346	7
165	129814	24.341821757053	7
165	130371	24.441821517628	7
165	130928	24.541821278066	7
165	131485	24.641821038374	7
165	132042	24.741820798555	7
165	132599	24.841820558625	7
165	133156	24.941820318598	7
165	133721	25.041820078499	7
165	134278	25.141819838349	7
165	134835	25.241819598176	7
165	135392	25.341819358	7
165	135949	25.441819117845	7
165	136506	25.541818877726	7
165	137063	25.64181863766	7
165	137620	25.741818397662	7
165	138177	25.84181815774	7
165	138734	25.941817917901	7
165	139299	26.041817678157	7
165	139856	26.141817438512	7
165	140413	26.241817198974	7
165	140970	26.341816959548	7
165	141527	26.44181672024	7
165	142084	26.541816481053	7
165	142641	26.641816241993	7
165	143198	26.741816003062	7
165	143755	26.841815764264	7
165	144312	26.941815525602	7
165	144877	27.041815287079	7
165	145434	27.141828048692	7
165	145991	27.241827810432	7
165	146548	27.341827572288	7
165	147105	27.441827334241	7
165	147662	27.541827096273	7
165	148219	27.641826858356	7
165	148776	27.741826620468	7
165	149333	27.841826382586	7
165	149890	27.941826144687	7
165	150455	28.041825906753	7
165	151012	28.14182566877	7
165	151569	28.241825430727	7
165	152126	28.341825192613	7
165	152683	28.441824954416	7
165	153240	28.541824716134	7
165	153797	28.641824477756	7
165	154354	28.741824239277	7
165	154911	28.841824000691	7
165	155468	28.941823761994	7
165	156033	29.04182352318	7
165	156590	29.141823284244	7
165	157147	29.241823045184	7
165	157704	29.341822805997	7
165	158261	29.441822566677	7
165	158818	29.541822327224	7
165	159375	29.641822087639	7
165	159932	29.741821847931	7
165	160489	29.841821608111	7
165	161046	29.941821368198	7
165	161611	30.041821128211	7
165	162168	30.141820888177	7
165	162725	30.241820648116	7
165	163282	30.341820408057	7
165	163839	30.441820168017	7
165	164396	30.541819928015	7
165	164953	30.641819688068	7
165	165510	30.741819448187	7
165	166067	30.841819208385	7
165	166624	30.941818968666	7
165	167189	31.041818729041	7
165	167746	31.141818489519	7
165	168303	31.241818250104	7
165	168860	31.341818010801	7
165	169417	31.441817771615	7
165	169974	31.541817532553	7
165	170531	31.641817293616	7
165	171088	31.741817054809	7
165	171645	31.841816816137	7
165	172202	31.941816577602	7
165	172767	32.041816339205	7
165	173324	32.141816100943	7
165	173881	32.241815862809	7
165	174438	32.34181562479	7
165	174995	32.441815386869	7
165	175552	32.541815149028	7
165	176109	32.641827911237	7
165	176666	32.741827673471	7
165	177223	32.841827435699	7
165	177780	32.94182719789	7
165	178345	33.041826960007	7
165	178902	33.141826722014	7
165	179459	33.241826483876	7
165	180016	33.341826245556	7
165	180573	33.441826007015	7
165	181130	33.541825768215	7
165	181687	33.641825529116	7
165	182244	33.741825289676	7
165	182801	33.841825049858	7
165	183358	33.941824809622	7
165	183923	34.04182456892	7
165	184480	34.141824327714	7
165	185037	34.241824085965	7
165	185594	34.341823843625	7
165	186151	34.441823600654	7
165	186708	34.541823357011	7
165	187265	34.641823112659	7
165	187822	34.741822867572	7
165	188379	34.841822621739	7
165	188936	34.941822375161	7
165	189501	35.041822127859	7
165	190058	35.141821879873	7
165	190615	35.241821631261	7
165	191172	35.341821382097	7
165	191729	35.441821132467	7
165	192286	35.54182088247	7
165	192843	35.641820632214	7
165	193400	35.741820381815	7
165	193957	35.84182013139	7
165	194514	35.941819881063	7
165	195079	36.041819630965	7
165	195636	36.141819381223	7
165	196193	36.241819131971	7
165	196750	36.341818883344	7
165	197307	36.441818635479	7
165	197864	36.541818388512	7
165	198421	36.64181814258	7
165	198978	36.741817897821	7
165	199535	36.841817654375	7
165	200092	36.94181741238	7
165	200657	37.041817171971	7
165	201214	37.141816933279	7
165	201771	37.241816696423	7
165	202328	37.341816461511	7
165	202885	37.441816228636	7
165	203442	37.541815997866	7
165	203999	37.641815769256	7
165	204556	37.741815542838	7
165	205113	37.841815318627	7
165	205670	37.941828096624	7
165	206235	38.041827876821	7
165	206792	38.141827659194	7
165	207349	38.24182744372	7
165	207906	38.341827230362	7
165	208463	38.441827019082	7
165	209020	38.541826809833	7
165	209577	38.641826602568	7
165	210134	38.741826397236	7
165	210691	38.841826193779	7
165	211248	38.941825992146	7
165	211813	39.041825792272	7
165	212370	39.1418255941	7
165	212927	39.241825397567	7
165	213484	39.341825202609	7
165	214041	39.441825009158	7
165	214598	39.541824817154	7
165	215155	39.641824626535	7
165	215712	39.74182443725	7
165	216269	39.841824249262	7
165	216826	39.941824062549	7
165	217391	40.041823877104	7
165	217948	40.141823692938	7
165	218505	40.241823510085	7
165	219062	40.341823328588	7
165	219619	40.441823148512	7
165	220176	40.541822969922	7
165	220733	40.6418227929	7
165	221290	40.741822617531	7
165	221847	40.841822443904	7
165	222404	40.941822272116	7
165	222969	41.041822102262	7
165	223526	41.141821934446	7
165	224083	41.241821768768	7
165	224640	41.341821605335	7
165	225197	41.441821444255	7
165	225754	41.541821285632	7
165	226311	41.641821129575	7
165	226868	41.74182097619	7
165	227425	41.841820825587	7
165	227982	41.941820677873	7
165	228547	42.041820533156	7
165	229104	42.141820391534	7
165	229661	42.241820253096	7
165	230218	42.34182011792	7
165	230775	42.441819986065	7
165	231332	42.541819857575	7
165	231889	42.641819732471	7
165	232446	42.741819610756	7
165	233003	42.841819492418	7
165	233560	42.941819377425	7
165	234125	43.041819265741	7
165	234682	43.141819157314	7
165	235239	43.241819052088	7
165	235796	43.341818950002	7
165	236353	43.441818850984	7
165	236910	43.541818754962	7
165	237467	43.641818661859	7
165	238024	43.741818571594	7
165	238581	43.841818484085	7
165	239138	43.941818399248	7
165	239703	44.041818316997	7
165	240260	44.141818237243	7
165	240817	44.241818159896	7
165	241374	44.341818084868	7
165	241931	44.441818012064	7
165	242488	44.541817941395	7
165	243045	44.641817872773	7
165	243602	44.741817806125	7
165	244159	44.841817741386	7
165	244716	44.941817678507	7
165	245281	45.041817617459	7
165	245838	45.141817558228	7
165	246395	45.24181750082	7
165	246952	45.34181744526	7
165	247509	45.441817391581	7
165	248066	45.54181733983	7
165	248623	45.641817290065	7
165	249180	45.741817242347	7
165	249737	45.841817196744	7
165	250294	45.941817153329	7
165	250859	46.041817112178	7
165	251416	46.141817073371	7
165	251973	46.241817036987	7
165	252530	46.341817003111	7
165	253087	46.441816971828	7
165	253644	46.541816943224	7
165	254201	46.641816917385	7
165	254758	46.7418168944	7
165	255315	46.84181687436	7
165	255872	46.941816857353	7
165	256437	47.041816843463	7
165	256994	47.141816832774	7
165	257551	47.241816825356	7
165	258108	47.341816821268	7
165	258665	47.441816820552	7
165	259222	47.541816823231	7
165	259779	47.641816829315	7
165	260336	47.741816838786	7
165	260893	47.841816851614	7
165	261450	47.941816867754	7
165	262015	48.041816887152	7
165	262572	48.14181690974	7
165	263129	48.241816935446	7
165	263686	48.341816964195	7
165	264243	48.441816995899	7
165	264800	48.541817030474	7
165	265357	48.641817067828	7
165	265914	48.741817107866	7
165	266471	48.84181715049	7
165	267028	48.941817195603	7
165	267593	49.041817243108	7
165	268150	49.1418172929	7
165	268707	49.241817344878	7
165	269264	49.341817398939	7
165	269821	49.44181745498	7
165	270378	49.541817512896	7
165	270935	49.641817572591	7
165	271492	49.741817633978	7
165	272049	49.841817696979	7
165	272606	49.94181776154	7
165	273171	50.041817827617	7
165	273728	50.141817895186	7
165	274285	50.241817964245	7
165	274842	50.341818034805	7
165	275399	50.441818106894	7
165	275956	50.541818180548	7
165	276513	50.641818255813	7
165	277070	50.741818332742	7
165	277627	50.841818411397	7
165	278184	50.941818491841	7
165	278749	51.04181857414	7
165	279306	51.141818658367	7
165	279863	51.241818744594	7
165	280420	51.341818832895	7
165	280977	51.441818923353	7
165	281534	51.541819016045	7
165	282091	51.641819111051	7
165	282648	51.741819208451	7
165	283205	51.841819308327	7
165	283762	51.941819410762	7
165	284327	52.041819515835	7
165	284884	52.141819623624	7
165	285441	52.241819734195	7
165	285998	52.341819847597	7
165	286555	52.441819963869	7
165	287112	52.541820083031	7
165	287669	52.64182020508	7
165	288226	52.74182033	7
165	288783	52.841820457754	7
165	289340	52.941820588294	7
165	289905	53.041820721559	7
165	290462	53.14182085748	7
165	291019	53.241820995982	7
165	291576	53.34182113698	7
165	292133	53.441821280387	7
165	292690	53.541821426112	7
165	293247	53.64182157406	7
165	293804	53.741821724133	7
165	294361	53.841821876231	7
165	294918	53.941822030253	7
165	295483	54.0418221861	7
165	296040	54.141822343665	7
165	296597	54.241822502842	7
165	297154	54.341822663528	7
165	297711	54.441822825614	7
165	298268	54.541822988996	7
165	298825	54.641823153574	7
165	299382	54.741823319259	7
165	299939	54.841823485977	7
165	300496	54.941823653665	7
165	301061	55.041823822279	7
165	301618	55.141823991794	7
165	302175	55.241824162209	7
165	302732	55.341824333532	7
165	303289	55.441824505788	7
165	303846	55.541824679014	7
165	304403	55.641824853254	7
165	304960	55.741825028563	7
165	305517	55.841825204997	7
165	306074	55.941825382623	7
165	306639	56.041825561504	7
165	307196	56.141825741715	7
165	307753	56.241825923325	7
165	308310	56.341826106412	7
165	308867	56.441826291055	7
165	309424	56.54182647733	7
165	309981	56.641826665319	7
165	310538	56.741826855104	7
165	311095	56.841827046763	7
165	311652	56.941827240383	7
165	312217	57.041827436043	7
165	312774	57.14182763382	7
165	313331	57.241827833779	7
165	313888	57.341828035973	7
165	314445	57.441828240439	7
165	315002	57.541815447199	7
165	315559	57.641815656253	7
165	316116	57.741815867583	7
165	316673	57.841816081154	7
165	317230	57.941816296917	7
165	317795	58.041816514815	7
165	318352	58.141816734778	7
165	318909	58.241816956733	7
165	319466	58.341817180596	7
165	320023	58.441817406281	7
165	320580	58.541817633699	7
165	321137	58.641817862757	7
165	321694	58.741818093357	7
165	322251	58.841818325406	7
165	322808	58.941818558799	7
165	323373	59.041818793439	7
165	323930	59.14181902922	7
165	324487	59.241819266042	7
165	325044	59.341819503798	7
165	325601	59.441819742386	7
165	326158	59.541819981701	7
165	326715	59.641820221647	7
165	327272	59.741820462136	7
165	327829	59.841820703093	7
165	328386	59.941820944461	7
164	5241	2	0
164	10809	3	0
164	16377	4	0
164	21946	5	0
164	27523	6	0
164	33101	7	0
164	38679	8	0
164	44257	9	0
164	49835	10	0
164	55413	11	0
164	60991	12	0
164	66569	13	0
164	72147	14	0
164	77725	15	0
164	83303	16	0
164	88881	17	0
164	94459	18	0
164	100037	19	0
164	105615	20	0
164	111193	21	0
164	116771	22	0
164	122349	23	0
164	127927	24	0
164	133505	25	0
164	139083	26	0
164	144661	27	0
164	150239	28	0
164	155817	29	0
164	161395	30	0
164	166973	31	0
164	172551	32	0
164	178129	33	0
164	183707	34	0
164	189285	35	0
164	194863	36	0
164	200441	37	0
164	206019	38	0
164	211597	39	0
164	217175	40	0
164	222753	41	0
164	228331	42	0
164	233909	43	0
164	239487	44	0
164	245065	45	0
164	250643	46	0
164	256221	47	0
164	261799	48	0
164	267377	49	0
164	272955	50	0
164	278533	51	0
164	284111	52	0
164	289689	53	0
164	295267	54	0
164	300845	55	0
164	306423	56	0
164	312001	57	0
164	317579	58	0
164	323157	59	0
164	328735	60	0
163	5241	2	0.023625
163	10809	3	0.02625
163	16377	4	0.02625
163	21946	5	0.02625
163	27523	6	0.02625
163	33101	7	0.02625
163	38679	8	0.02625
163	44257	9	0.02625
163	49835	10	0.02625
163	55413	11	0.02625
163	60991	12	0.02625
163	66569	13	0.02625
163	72147	14	0.02625
163	77725	15	0.02625
163	83303	16	0.02625
163	88881	17	0.02625
163	94459	18	0.02625
163	100037	19	0.02625
163	105615	20	0.02625
163	111193	21	0.02625
163	116771	22	0.02625
163	122349	23	0.02625
163	127927	24	0.02625
163	133505	25	0.02625
163	139083	26	0.02625
163	144661	27	0.02625
163	150239	28	0.02625
163	155817	29	0.02625
163	161395	30	0.02625
163	166973	31	0.02625
163	172551	32	0.02625
163	178129	33	0.02625
163	183707	34	0.02625
163	189285	35	0.02625
163	194863	36	0.02625
163	200441	37	0.02625
163	206019	38	0.02625
163	211597	39	0.02625
163	217175	40	0.02625
163	222753	41	0.02625
163	228331	42	0.02625
163	233909	43	0.02625
163	239487	44	0.02625
163	245065	45	0.02625
163	250643	46	0.02625
163	256221	47	0.02625
163	261799	48	0.02625
163	267377	49	0.02625
163	272955	50	0.02625
163	278533	51	0.02625
163	284111	52	0.02625
163	289689	53	0.02625
163	295267	54	0.02625
163	300845	55	0.02625
163	306423	56	0.02625
163	312001	57	0.02625
163	317579	58	0.02625
163	323157	59	0.02625
163	328735	60	0.02625
162	5241	2	7
162	10809	3	7
162	16377	4	7
162	21946	5	7
162	27523	6	7
162	33101	7	7
162	38679	8	7
162	44257	9	7
162	49835	10	7
162	55413	11	7
162	60991	12	7
162	66569	13	7
162	72147	14	7
162	77725	15	7
162	83303	16	7
162	88881	17	7
162	94459	18	7
162	100037	19	7
162	105615	20	7
162	111193	21	7
162	116771	22	7
162	122349	23	7
162	127927	24	7
162	133505	25	7
162	139083	26	7
162	144661	27	7
162	150239	28	7
162	155817	29	7
162	161395	30	7
162	166973	31	7
162	172551	32	7
162	178129	33	7
162	183707	34	7
162	189285	35	7
162	194863	36	7
162	200441	37	7
162	206019	38	7
162	211597	39	7
162	217175	40	7
162	222753	41	7
162	228331	42	7
162	233909	43	7
162	239487	44	7
162	245065	45	7
162	250643	46	7
162	256221	47	7
162	261799	48	7
162	267377	49	7
162	272955	50	7
162	278533	51	7
162	284111	52	7
162	289689	53	7
162	295267	54	7
162	300845	55	7
162	306423	56	7
162	312001	57	7
162	317579	58	7
162	323157	59	7
162	328735	60	7
