file 1681744 1501768090                                         
version 2
run SinusoidalJammingDetail-427-20170803-15:47:38-56893
attr CACCSpacing 5
attr attackAcc -30
attr attackPos 7
attr attackSpeed 150
attr attackStart 30.5
attr attacker 1
attr beaconInterval 0.1
attr configname SinusoidalJammingDetail
attr controller 2
attr datetime 20170803-15:47:38
attr experiment SinusoidalJammingDetail
attr fakeAcc "(1 == 4)"
attr fakePos "(1 == 2)"
attr fakeSpeed "(1 == 3)"
attr inifile omnetpp_427.ini
attr iterationvars "$leaderSpeed=80, $controller=2, $CACCSpacing=5, $sController=\"PLOEG\", $attacker=1, $attackStart=30.5, $attackSpeed=150, $attackPos=7, $attackAcc=-30, $0=5, $1=0.5, $nCars=8, $platoonSize=8, $nLanes=1, $beaconInterval=0.1, $priority=2, $packetSize=200, $ploegH=0.5, $leaderHeadway=1.2, $fakeSpeed=(1 == 3), $fakeAcc=(1 == 4), $fakePos=(1 == 2)"
attr iterationvarsf leaderSpeed=80,controller=2,CACCSpacing=5,sController=PLOEG,attacker=1,attackStart=30.5,attackSpeed=150,attackPos=7,attackAcc=-30,5,0.5,nCars=8,platoonSize=8,nLanes=1,beaconInterval=0.1,priority=2,packetSize=200,ploegH=0.5,leaderHeadway=1.2,fakeSpeed=(1_==_3),fakeAcc=(1_==_4),fakePos=(1_==_2)-
attr leaderHeadway 1.2
attr leaderSpeed 80
attr measurement "$leaderSpeed=80, $controller=2, $CACCSpacing=5, $sController=\"PLOEG\", $attacker=1, $attackStart=30.5, $attackSpeed=150, $attackPos=7, $attackAcc=-30, $0=5, $1=0.5, $nCars=8, $platoonSize=8, $nLanes=1, $beaconInterval=0.1, $priority=2, $packetSize=200, $ploegH=0.5, $leaderHeadway=1.2, $fakeSpeed=(1 == 3), $fakeAcc=(1 == 4), $fakePos=(1 == 2)"
attr nCars 8
attr nLanes 1
attr network scenario
attr packetSize 200
attr platoonSize 8
attr ploegH 0.5
attr priority 2
attr processid 56893
attr repetition 2
attr replication #2
attr resultdir results
attr runnumber 427
attr sController "\"PLOEG\""
attr seedset 2
param **.coreDebug false
param **.debug false
param **.headway 0.1s
param **.numberOfCars 8
param **.numberOfCarsPerPlatoon 8
param **.numberOfLanes 1
param **.numericController 2
param **.traffic.nCars 8
param **.traffic.nLanes 1
param **.traffic.platoonInsertDistance 5m
param **.traffic.platoonInsertHeadway 0.5s
param **.traffic.platoonInsertSpeed 80kmph
param **.traffic.platoonInsertTime "1 s"
param **.traffic.platoonLeaderHeadway 1.2s
param **.traffic.platoonSize 8
param **.traffic.platooningVType "\"vtypeauto\""
param **.traffic_type "\"PlatoonsTrafficManager\""
param *.**.nic.mac1609_4.bitrate 6Mbps
param *.**.nic.mac1609_4.txPower 100mW
param *.**.nic.mac1609_4.useServiceChannel false
param *.**.nic.phy80211p.analogueModels "xmldoc(\"config.xml\")"
param *.**.nic.phy80211p.decider "xmldoc(\"config.xml\")"
param *.**.nic.phy80211p.maxTXPower 100mW
param *.**.nic.phy80211p.sensitivity -94dBm
param *.**.nic.phy80211p.thermalNoise -95dBm
param *.**.nic.phy80211p.usePropagationDelay true
param *.**.nic.phy80211p.useThermalNoise true
param *.annotations.draw false
param *.connectionManager.alpha 2.0
param *.connectionManager.carrierFrequency "5.890e9 Hz"
param *.connectionManager.pMax 100mW
param *.connectionManager.sat -94dBm
param *.connectionManager.sendDirect true
param *.manager.autoShutdown true
param *.manager.commandLine "\"sumo --remote-port $port --seed $seed --configuration-file $configFile\""
param *.manager.configFile "\"./sumocfg/freeway.sumo.cfg\""
param *.manager.host "\"localhost\""
param *.manager.margin 25
param *.manager.moduleDisplayString "\"\""
param *.manager.moduleName "\"node\""
param *.manager.moduleType "\"Car\""
param *.manager.updateInterval 0.01s
param *.node[*].appl.attackStart 30.5s
param *.node[*].appl.attackerType 1
param *.node[*].appl.simulationDuration "60 s"
param *.node[*].appl_type "\"SimplePlatooningApp\""
param *.node[*].helper.nCars 8
param *.node[*].helper.nLanes 1
param *.node[*].helper.platoonSize 8
param *.node[*].helper_type "\"PositionHelper\""
param *.node[*].mobility.x 0
param *.node[*].mobility.y 0
param *.node[*].mobility.z 1.895
param *.node[*].prot.attackStart 30.5s
param *.node[*].prot.attackerType 1
param *.node[*].prot.attackingNode 3
param *.node[*].prot.beaconingInterval 0.1s
param *.node[*].prot.fakeAcc "(1 == 4)"
param *.node[*].prot.fakePos "(1 == 2)"
param *.node[*].prot.fakeSpeed "(1 == 3)"
param *.node[*].prot.maliciousAcc "-30 mpss"
param *.node[*].prot.maliciousSpeed 150kmph
param *.node[*].prot.packetSize 200
param *.node[*].prot.priority 2
param *.node[*].prot.shiftX "7 m"
param *.node[*].prot.useControllerAcceleration true
param *.node[*].protocol_type "\"SimplePlatooningBeaconing\""
param *.node[*].scenario.accHeadway 0.1s
param *.node[*].scenario.caccC1 0.5
param *.node[*].scenario.caccOmegaN "0.2 Hz"
param *.node[*].scenario.caccSpacing 5m
param *.node[*].scenario.caccXi 1
param *.node[*].scenario.controller "\"PLOEG\""
param *.node[*].scenario.engineTau "0.5 s"
param *.node[*].scenario.leaderHeadway 1.2s
param *.node[*].scenario.leaderOscillationFrequency "0.2 Hz"
param *.node[*].scenario.leaderSpeed 80kmph
param *.node[*].scenario.oscillationAmplitude "10 kmph"
param *.node[*].scenario.ploegH 0.5s
param *.node[*].scenario.ploegKd 0.7
param *.node[*].scenario.ploegKp 0.2
param *.node[*].scenario.startOscillating "5 s"
param *.node[*].scenario.useRealisticEngine false
param *.node[*].scenario_type "\"SinusoidalScenario\""
param *.node[*].unicast.packetLossRate 0
param *.obstacles.debug false
param *.playgroundSizeX 65000m
param *.playgroundSizeY 25000m
param *.playgroundSizeZ 50m
param *.world.use2D false
param *.world.useTorus false

vector 0  scenario.node[0].appl  distance  ETV
vector 1  scenario.node[0].appl  relativeSpeed  ETV
vector 2  scenario.node[0].appl  nodeId  ETV
vector 6  scenario.node[0].appl  acceleration  ETV
vector 7  scenario.node[0].appl  controllerAcceleration  ETV
vector 3  scenario.node[0].appl  speed  ETV
vector 4  scenario.node[0].appl  posx  ETV
vector 5  scenario.node[0].appl  posy  ETV
vector 22  scenario.node[1].appl  distance  ETV
vector 23  scenario.node[1].appl  relativeSpeed  ETV
vector 24  scenario.node[1].appl  nodeId  ETV
vector 28  scenario.node[1].appl  acceleration  ETV
vector 29  scenario.node[1].appl  controllerAcceleration  ETV
vector 25  scenario.node[1].appl  speed  ETV
vector 26  scenario.node[1].appl  posx  ETV
vector 27  scenario.node[1].appl  posy  ETV
vector 44  scenario.node[2].appl  distance  ETV
vector 45  scenario.node[2].appl  relativeSpeed  ETV
vector 46  scenario.node[2].appl  nodeId  ETV
vector 50  scenario.node[2].appl  acceleration  ETV
vector 51  scenario.node[2].appl  controllerAcceleration  ETV
vector 47  scenario.node[2].appl  speed  ETV
vector 48  scenario.node[2].appl  posx  ETV
vector 49  scenario.node[2].appl  posy  ETV
vector 66  scenario.node[3].appl  distance  ETV
vector 67  scenario.node[3].appl  relativeSpeed  ETV
vector 68  scenario.node[3].appl  nodeId  ETV
vector 72  scenario.node[3].appl  acceleration  ETV
vector 73  scenario.node[3].appl  controllerAcceleration  ETV
vector 69  scenario.node[3].appl  speed  ETV
vector 70  scenario.node[3].appl  posx  ETV
vector 71  scenario.node[3].appl  posy  ETV
vector 88  scenario.node[4].appl  distance  ETV
vector 89  scenario.node[4].appl  relativeSpeed  ETV
vector 90  scenario.node[4].appl  nodeId  ETV
vector 94  scenario.node[4].appl  acceleration  ETV
vector 95  scenario.node[4].appl  controllerAcceleration  ETV
vector 91  scenario.node[4].appl  speed  ETV
vector 92  scenario.node[4].appl  posx  ETV
vector 93  scenario.node[4].appl  posy  ETV
vector 110  scenario.node[5].appl  distance  ETV
vector 111  scenario.node[5].appl  relativeSpeed  ETV
vector 112  scenario.node[5].appl  nodeId  ETV
vector 116  scenario.node[5].appl  acceleration  ETV
vector 117  scenario.node[5].appl  controllerAcceleration  ETV
vector 113  scenario.node[5].appl  speed  ETV
vector 114  scenario.node[5].appl  posx  ETV
vector 115  scenario.node[5].appl  posy  ETV
vector 132  scenario.node[6].appl  distance  ETV
vector 133  scenario.node[6].appl  relativeSpeed  ETV
vector 134  scenario.node[6].appl  nodeId  ETV
vector 138  scenario.node[6].appl  acceleration  ETV
vector 139  scenario.node[6].appl  controllerAcceleration  ETV
vector 135  scenario.node[6].appl  speed  ETV
vector 136  scenario.node[6].appl  posx  ETV
vector 137  scenario.node[6].appl  posy  ETV
vector 154  scenario.node[7].appl  distance  ETV
vector 155  scenario.node[7].appl  relativeSpeed  ETV
vector 156  scenario.node[7].appl  nodeId  ETV
vector 160  scenario.node[7].appl  acceleration  ETV
vector 161  scenario.node[7].appl  controllerAcceleration  ETV
vector 157  scenario.node[7].appl  speed  ETV
vector 158  scenario.node[7].appl  posx  ETV
vector 159  scenario.node[7].appl  posy  ETV
vector 168  scenario.node[7].prot  frontDelay  ETV
vector 166  scenario.node[7].prot  frontDelayId  ETV
vector 146  scenario.node[6].prot  frontDelay  ETV
vector 144  scenario.node[6].prot  frontDelayId  ETV
vector 35  scenario.node[1].prot  leaderDelay  ETV
vector 33  scenario.node[1].prot  leaderDelayId  ETV
vector 36  scenario.node[1].prot  frontDelay  ETV
vector 34  scenario.node[1].prot  frontDelayId  ETV
vector 57  scenario.node[2].prot  leaderDelay  ETV
vector 55  scenario.node[2].prot  leaderDelayId  ETV
vector 79  scenario.node[3].prot  leaderDelay  ETV
vector 77  scenario.node[3].prot  leaderDelayId  ETV
vector 101  scenario.node[4].prot  leaderDelay  ETV
vector 99  scenario.node[4].prot  leaderDelayId  ETV
vector 123  scenario.node[5].prot  leaderDelay  ETV
vector 121  scenario.node[5].prot  leaderDelayId  ETV
vector 145  scenario.node[6].prot  leaderDelay  ETV
vector 143  scenario.node[6].prot  leaderDelayId  ETV
vector 167  scenario.node[7].prot  leaderDelay  ETV
vector 165  scenario.node[7].prot  leaderDelayId  ETV
vector 102  scenario.node[4].prot  frontDelay  ETV
vector 100  scenario.node[4].prot  frontDelayId  ETV
vector 80  scenario.node[3].prot  frontDelay  ETV
vector 78  scenario.node[3].prot  frontDelayId  ETV
vector 124  scenario.node[5].prot  frontDelay  ETV
vector 122  scenario.node[5].prot  frontDelayId  ETV
vector 58  scenario.node[2].prot  frontDelay  ETV
vector 56  scenario.node[2].prot  frontDelayId  ETV
vector 8  scenario.node[0].prot  nodeId  ETV
vector 9  scenario.node[0].prot  busyTime  ETV
vector 10  scenario.node[0].prot  collisions  ETV
vector 30  scenario.node[1].prot  nodeId  ETV
vector 31  scenario.node[1].prot  busyTime  ETV
vector 32  scenario.node[1].prot  collisions  ETV
vector 52  scenario.node[2].prot  nodeId  ETV
vector 53  scenario.node[2].prot  busyTime  ETV
vector 54  scenario.node[2].prot  collisions  ETV
vector 74  scenario.node[3].prot  nodeId  ETV
vector 75  scenario.node[3].prot  busyTime  ETV
vector 76  scenario.node[3].prot  collisions  ETV
vector 96  scenario.node[4].prot  nodeId  ETV
vector 97  scenario.node[4].prot  busyTime  ETV
vector 98  scenario.node[4].prot  collisions  ETV
vector 118  scenario.node[5].prot  nodeId  ETV
vector 119  scenario.node[5].prot  busyTime  ETV
vector 120  scenario.node[5].prot  collisions  ETV
vector 140  scenario.node[6].prot  nodeId  ETV
vector 141  scenario.node[6].prot  busyTime  ETV
vector 142  scenario.node[6].prot  collisions  ETV
vector 162  scenario.node[7].prot  nodeId  ETV
vector 163  scenario.node[7].prot  busyTime  ETV
vector 164  scenario.node[7].prot  collisions  ETV
7	11251 13855 232 328174 1.11 59.91 589 -1.5 1.5 -14.445957496355 993.24092342393
6	25106 18568 232 328174 1.11 59.91 589 -1.4722746795719 1.4513434175793 -12.507252200722 675.29835178084
5	43674 12081 232 328174 1.11 59.91 589 36.55 36.55 21527.95 786846.5725
4	55755 17896 232 328174 1.11 59.91 589 177.89330368069 1488.8761010451 491683.35834279 494855705.23256
3	73651 17918 232 328174 1.11 59.91 589 20.932410304178 24.18693697487 13131.616571188 293209.28872176
1	91569 9725 232 328174 1.11 59.91 589 0 0 0 0
0	101294 10314 232 328174 1.11 59.91 589 -1 -1 -589 589
2	111608 9725 232 328174 1.11 59.91 589 0 0 0 0
10	121333 858 5168 328662 2 60 59 0 0 0 0
9	122191 1154 5168 328662 2 60 59 0.023297 0.02625 1.545797 0.040508375209
8	123345 799 5168 328662 2 60 59 0 0 0 0
29	124144 19159 233 328175 1.11 59.91 589 -1.5826818410368 1.5342065115367 4.5234415150041 538.17448666501
28	143303 19246 233 328175 1.11 59.91 589 -1.5019381881856 1.4633784248524 6.2331477733938 390.3013400278
27	162549 12670 233 328175 1.11 59.91 589 36.55 36.55 21527.95 786846.5725
26	175219 18507 233 328175 1.11 59.91 589 157.78218917847 1479.1535942986 483319.10089529 482583877.06599
25	193726 18500 233 328175 1.11 59.91 589 21.111797870185 24.797256375077 13236.156924758 297832.9203239
23	212226 19296 233 328175 1.11 59.91 589 -3.587433514465 1.8972790815768 -104.41528104802 671.06408140335
22	231522 18497 233 328175 1.11 59.91 589 4.0852259012368 16.111114502102 6010.3482545782 70470.91849416
24	250019 10314 233 328175 1.11 59.91 589 1 1 589 589
36	260333 23684 1034 328420 1.262218079584 59.962213161149 588 0.099999199271 0.100012471179 58.799994557399 5.8799989167403
35	284017 23684 1034 328420 1.262218079584 59.962213161149 588 0.099999199271 0.100012471179 58.799994557399 5.8799989167403
34	307701 16101 1034 328420 1.262218079584 59.962213161149 588 1 1 588 588
33	323802 16101 1034 328420 1.262218079584 59.962213161149 588 1 1 588 588
32	339903 858 5169 328663 2 60 59 0 0 0 0
31	340761 1213 5169 328663 2 60 59 0.023296 0.02625 1.545796 0.040508328616
30	341974 858 5169 328663 2 60 59 1 1 59 59
51	342832 19221 234 328176 1.11 59.91 589 -1.5981548550428 1.5173828406975 6.6896572273085 429.74740348413
50	362053 19274 234 328176 1.11 59.91 589 -1.4653997191303 1.4209037323372 5.903372541195 315.93960870892
49	381327 12670 234 328176 1.11 59.91 589 36.55 36.55 21527.95 786846.5725
48	393997 18490 234 328176 1.11 59.91 589 137.67107467651 1461.7238024014 473044.33097467 466080089.14703
47	412487 18498 234 328176 1.11 59.91 589 21.256606463793 24.712693991632 13262.95485722 299025.29355243
45	430985 19470 234 328176 1.11 59.91 589 -0.76850525164075 0.71647555594571 -26.860263940162 93.242698268948
44	450455 18485 234 328176 1.11 59.91 589 12.595068597751 16.111709304096 7919.3058792634 106845.40864036
46	468940 10314 234 328176 1.11 59.91 589 2 2 1178 2356
58	479254 23681 1312 328707 1.302597683335 60.002605681523 588 0.099999198636 0.100012475815 58.800007474023 5.8800015002175
57	502935 23688 1040 328426 1.262218146668 59.962213219294 588 0.099999199251 0.100012471102 58.79999454846 5.8799989149525
56	526623 16113 1312 328707 1.302597683335 60.002605681523 588 2 2 1176 2352
55	542736 16114 1040 328426 1.262218146668 59.962213219294 588 2 2 1176 2352
54	558850 858 5170 328664 2 60 59 0 0 0 0
53	559708 1213 5170 328664 2 60 59 0.023297 0.02625 1.545797 0.040508375209
52	560921 858 5170 328664 2 60 59 2 2 118 236
73	561779 19261 235 328177 1.11 59.91 589 -1.54601168932 1.4738210612111 6.0648362152399 351.89984743852
72	581040 19308 235 328177 1.11 59.91 589 -1.3993894120464 1.3667552963287 3.6068755726337 262.01588223306
71	600348 12670 235 328177 1.11 59.91 589 36.55 36.55 21527.95 786846.5725
70	613018 18480 235 328177 1.11 59.91 589 117.55996780396 1444.4039446167 462756.35739492 449930830.01528
69	631498 18495 235 328177 1.11 59.91 589 21.37228857882 24.632767649085 13290.784496679 300297.5218537
67	649993 19508 235 328177 1.11 59.91 589 -0.7199193653807 0.6900489182984 -27.888673184523 76.3531023009
66	669501 18484 235 328177 1.11 59.91 589 12.65765242164 16.111106872559 7932.5301725392 107220.80769062
68	687985 10314 235 328177 1.11 59.91 589 3 3 1767 5301
80	698299 23698 1170 328556 1.287874347917 59.98788239275 588 0.099999198984 0.10001247579 58.800007520667 5.8800015095458
79	721997 23714 1046 328432 1.262218213751 59.962213277105 588 0.099999199161 0.100012471061 58.799994539188 5.8799989130981
78	745711 16119 1170 328556 1.287874347917 59.98788239275 588 3 3 1764 5292
77	761830 16119 1046 328432 1.262218213751 59.962213277105 588 3 3 1764 5292
76	777949 858 5171 328665 2 60 59 0 0 0 0
75	778807 1213 5171 328665 2 60 59 0.023297 0.02625 1.545797 0.040508375209
74	780020 858 5171 328665 2 60 59 3 3 177 531
95	780878 19291 236 328178 1.11 59.91 589 -1.4655613466064 1.4179890162331 3.4906336879363 295.30125855477
94	800169 19383 236 328178 1.11 59.91 589 -1.323528749991 1.3084873726697 0.56522336894851 222.45951143165
93	819552 12670 236 328178 1.11 59.91 589 36.55 36.55 21527.95 786846.5725
92	832222 18500 236 328178 1.11 59.91 589 97.448853302002 1427.2416447055 452454.16801357 434135024.86351
91	850722 18499 236 328178 1.11 59.91 589 21.471018890587 24.654199990478 13320.165532689 301667.90722248
89	869221 19543 236 328178 1.11 59.91 589 -0.6691131922388 0.66055763737194 -29.417104765659 62.965224996383
88	888764 18487 236 328178 1.11 59.91 589 12.710629986439 16.111114501953 7946.777002072 107626.8766587
90	907251 10314 236 328178 1.11 59.91 589 4 4 2356 9424
102	917565 24295 1108 328488 1.276580280834 59.976588334413 588 0.099999199057 0.100012475791 58.800007529413 5.8800015112951
101	941860 24291 1052 328438 1.262218280835 59.962213334403 588 0.099999199056 0.100012471044 58.799994529402 5.8799989111409
100	966151 16706 1108 328488 1.276580280834 59.976588334413 588 4 4 2352 9408
99	982857 16115 1052 328438 1.262218280835 59.962213334403 588 4 4 2352 9408
98	998972 858 5172 328666 2 60 59 0 0 0 0
97	999830 1213 5172 328666 2 60 59 0.023297 0.02625 1.545797 0.040508375209
96	1001043 858 5172 328666 2 60 59 4 4 236 944
117	1001901 19946 237 328179 1.11 59.91 589 -1.3737697640414 1.3562998068602 0.25515004025002 252.86064341144
116	1021847 19979 237 328179 1.11 59.91 589 -1.2444066259597 1.2479464899833 -1.9998403679619 193.76948595292
115	1041826 13259 237 328179 1.11 59.91 589 36.55 36.55 21527.95 786846.5725
114	1055085 19086 237 328179 1.11 59.91 589 77.337742614746 1410.2206939797 442136.12606049 418691402.40492
113	1074171 19079 237 328179 1.11 59.91 589 21.558890543304 25.165099766024 13350.978389389 303125.78441805
111	1093250 20167 237 328179 1.11 59.91 589 -0.61968147290299 0.62958701127767 -30.818508934059 52.359503523127
110	1113417 19083 237 328179 1.11 59.91 589 12.757476926542 16.113810263409 7962.6582102107 108081.62714907
112	1132500 10903 237 328179 1.11 59.91 589 5 5 2945 14725
124	1143403 24280 1244 328624 1.297504482084 59.997512506913 588 0.0999991988 0.100012475684 58.800007500663 5.8800015055445
123	1167683 24298 1058 328444 1.262218347918 59.962213391222 588 0.099999198978 0.100012471038 58.799994519138 5.8799989090881
122	1191981 16706 1244 328624 1.297504482084 59.997512506913 588 5 5 2940 14700
121	1208687 16721 1058 328444 1.262218347918 59.962213391222 588 5 5 2940 14700
120	1225408 917 5173 328667 2 60 59 0 0 0 0
119	1226325 1272 5173 328667 2 60 59 0.023297 0.02625 1.545797 0.040508375209
118	1227597 917 5173 328667 2 60 59 5 5 295 1475
139	1228514 19964 238 328180 1.11 59.91 589 -1.282671392328 1.2909394491941 -2.3201082750308 220.08338387018
138	1248478 19995 238 328180 1.11 59.91 589 -1.1695060329643 1.2076078335863 -3.2903027136502 173.12660699965
137	1268473 13259 238 328180 1.11 59.91 589 36.55 36.55 21527.95 786846.5725
136	1281732 19082 238 328180 1.11 59.91 589 57.226633834839 1393.2776776115 431803.8191191 403600541.83329
135	1300814 19078 238 328180 1.11 59.91 589 21.638091813407 25.620669894401 13382.616090954 304638.10997882
133	1319892 20180 238 328180 1.11 59.91 589 -0.57472474432212 0.59820519101034 -31.617703160547 43.700432939819
132	1340072 19075 238 328180 1.11 59.91 589 12.799678938948 16.111108779907 7976.9396954242 108485.33067913
134	1359147 10903 238 328180 1.11 59.91 589 6 6 3534 21204
146	1370050 24261 970 328350 1.247595744167 59.947603923296 588 0.099999198277 0.100012475201 58.800007654963 5.8800015364036
145	1394311 24265 1064 328450 1.262218415002 59.962213447759 588 0.099999198947 0.100012471031 58.799994508591 5.8799989069787
144	1418576 16679 970 328350 1.247595744167 59.947603923296 588 6 6 3528 21168
143	1435255 16696 1064 328450 1.262218415002 59.962213447759 588 6 6 3528 21168
142	1451951 917 5174 328668 2 60 59 0 0 0 0
141	1452868 1272 5174 328668 2 60 59 0.023297 0.02625 1.545797 0.040508375209
140	1454140 917 5174 328668 2 60 59 6 6 354 2124
161	1455057 19973 239 328181 1.11 59.91 589 -1.1961885749877 1.3161493404587 -3.5408923766055 197.01347429025
160	1475030 20005 239 328181 1.11 59.91 589 -1.0978498410935 1.2473367072616 -3.1490052530295 158.6397432934
159	1495035 13259 239 328181 1.11 59.91 589 36.55 36.55 21527.95 786846.5725
158	1508294 19092 239 328181 1.11 59.91 589 37.115522193909 1376.3363157274 421456.49343875 388863178.72919
157	1527386 19079 239 328181 1.11 59.91 589 21.707542583103 26.025750229465 13414.320562766 306168.69668149
155	1546465 20214 239 328181 1.11 59.91 589 -0.54286374596131 0.56805132442737 -31.671568785312 37.086161714986
154	1566679 19090 239 328181 1.11 59.91 589 12.836829283495 16.11111164093 7991.9597697906 108912.69041588
156	1585769 10903 239 328181 1.11 59.91 589 7 7 4123 28861
168	1596672 24280 832 328212 1.212137542917 59.912132753738 588 0.099999198342 0.100012463833 58.799994686655 5.8799989425897
167	1620952 24281 1070 328456 1.262218482085 59.962213504267 588 0.099999198956 0.100012471024 58.799994498016 5.8799989048637
166	1645233 16700 832 328212 1.212137542917 59.912132753738 588 7 7 4116 28812
165	1661933 16705 1070 328456 1.262218482085 59.962213504267 588 7 7 4116 28812
164	1678638 917 5175 328669 2 60 59 0 0 0 0
163	1679555 1272 5175 328669 2 60 59 0.023297 0.02625 1.545797 0.040508375209
162	1680827 917 5175 328669 2 60 59 7 7 413 2891
