file 1685013 1501596233                                         
version 2
run SinusoidalJammingDetail-56-20170801-16:03:23-101891
attr CACCSpacing 7
attr attackAcc -30
attr attackPos 7
attr attackSpeed 150
attr attackStart 32.5
attr attacker 1
attr beaconInterval 0.1
attr configname SinusoidalJammingDetail
attr controller 1
attr datetime 20170801-16:03:23
attr experiment SinusoidalJammingDetail
attr fakeAcc "(1 == 4)"
attr fakePos "(1 == 2)"
attr fakeSpeed "(1 == 3)"
attr inifile omnetpp_56.ini
attr iterationvars "$leaderSpeed=50, $controller=1, $CACCSpacing=7, $sController=\"CACC\", $attacker=1, $attackStart=32.5, $attackSpeed=150, $attackPos=7, $attackAcc=-30, $0=7, $1=0, $nCars=8, $platoonSize=8, $nLanes=1, $beaconInterval=0.1, $priority=2, $packetSize=200, $ploegH=0.5, $leaderHeadway=1.2, $fakeSpeed=(1 == 3), $fakeAcc=(1 == 4), $fakePos=(1 == 2)"
attr iterationvarsf leaderSpeed=50,controller=1,CACCSpacing=7,sController=CACC,attacker=1,attackStart=32.5,attackSpeed=150,attackPos=7,attackAcc=-30,7,0,nCars=8,platoonSize=8,nLanes=1,beaconInterval=0.1,priority=2,packetSize=200,ploegH=0.5,leaderHeadway=1.2,fakeSpeed=(1_==_3),fakeAcc=(1_==_4),fakePos=(1_==_2)-
attr leaderHeadway 1.2
attr leaderSpeed 50
attr measurement "$leaderSpeed=50, $controller=1, $CACCSpacing=7, $sController=\"CACC\", $attacker=1, $attackStart=32.5, $attackSpeed=150, $attackPos=7, $attackAcc=-30, $0=7, $1=0, $nCars=8, $platoonSize=8, $nLanes=1, $beaconInterval=0.1, $priority=2, $packetSize=200, $ploegH=0.5, $leaderHeadway=1.2, $fakeSpeed=(1 == 3), $fakeAcc=(1 == 4), $fakePos=(1 == 2)"
attr nCars 8
attr nLanes 1
attr network scenario
attr packetSize 200
attr platoonSize 8
attr ploegH 0.5
attr priority 2
attr processid 101891
attr repetition 1
attr replication #1
attr resultdir results
attr runnumber 56
attr sController "\"CACC\""
attr seedset 1
param **.coreDebug false
param **.debug false
param **.headway 0.1s
param **.numberOfCars 8
param **.numberOfCarsPerPlatoon 8
param **.numberOfLanes 1
param **.numericController 1
param **.traffic.nCars 8
param **.traffic.nLanes 1
param **.traffic.platoonInsertDistance 7m
param **.traffic.platoonInsertHeadway 0s
param **.traffic.platoonInsertSpeed 50kmph
param **.traffic.platoonInsertTime "1 s"
param **.traffic.platoonLeaderHeadway 1.2s
param **.traffic.platoonSize 8
param **.traffic.platooningVType "\"vtypeauto\""
param **.traffic_type "\"PlatoonsTrafficManager\""
param *.**.nic.mac1609_4.bitrate 6Mbps
param *.**.nic.mac1609_4.txPower 100mW
param *.**.nic.mac1609_4.useServiceChannel false
param *.**.nic.phy80211p.analogueModels "xmldoc(\"config.xml\")"
param *.**.nic.phy80211p.decider "xmldoc(\"config.xml\")"
param *.**.nic.phy80211p.maxTXPower 100mW
param *.**.nic.phy80211p.sensitivity -94dBm
param *.**.nic.phy80211p.thermalNoise -95dBm
param *.**.nic.phy80211p.usePropagationDelay true
param *.**.nic.phy80211p.useThermalNoise true
param *.annotations.draw false
param *.connectionManager.alpha 2.0
param *.connectionManager.carrierFrequency "5.890e9 Hz"
param *.connectionManager.pMax 100mW
param *.connectionManager.sat -94dBm
param *.connectionManager.sendDirect true
param *.manager.autoShutdown true
param *.manager.commandLine "\"sumo --remote-port $port --seed $seed --configuration-file $configFile\""
param *.manager.configFile "\"./sumocfg/freeway.sumo.cfg\""
param *.manager.host "\"localhost\""
param *.manager.margin 25
param *.manager.moduleDisplayString "\"\""
param *.manager.moduleName "\"node\""
param *.manager.moduleType "\"Car\""
param *.manager.updateInterval 0.01s
param *.node[*].appl.attackStart 32.5s
param *.node[*].appl.attackerType 1
param *.node[*].appl.simulationDuration "60 s"
param *.node[*].appl_type "\"SimplePlatooningApp\""
param *.node[*].helper.nCars 8
param *.node[*].helper.nLanes 1
param *.node[*].helper.platoonSize 8
param *.node[*].helper_type "\"PositionHelper\""
param *.node[*].mobility.x 0
param *.node[*].mobility.y 0
param *.node[*].mobility.z 1.895
param *.node[*].prot.attackStart 32.5s
param *.node[*].prot.attackerType 1
param *.node[*].prot.attackingNode 3
param *.node[*].prot.beaconingInterval 0.1s
param *.node[*].prot.fakeAcc "(1 == 4)"
param *.node[*].prot.fakePos "(1 == 2)"
param *.node[*].prot.fakeSpeed "(1 == 3)"
param *.node[*].prot.maliciousAcc "-30 mpss"
param *.node[*].prot.maliciousSpeed 150kmph
param *.node[*].prot.packetSize 200
param *.node[*].prot.priority 2
param *.node[*].prot.shiftX "7 m"
param *.node[*].prot.useControllerAcceleration true
param *.node[*].protocol_type "\"SimplePlatooningBeaconing\""
param *.node[*].scenario.accHeadway 0.1s
param *.node[*].scenario.caccC1 0.5
param *.node[*].scenario.caccOmegaN "0.2 Hz"
param *.node[*].scenario.caccSpacing 7m
param *.node[*].scenario.caccXi 1
param *.node[*].scenario.controller "\"CACC\""
param *.node[*].scenario.engineTau "0.5 s"
param *.node[*].scenario.leaderHeadway 1.2s
param *.node[*].scenario.leaderOscillationFrequency "0.2 Hz"
param *.node[*].scenario.leaderSpeed 50kmph
param *.node[*].scenario.oscillationAmplitude "10 kmph"
param *.node[*].scenario.ploegH 0.5s
param *.node[*].scenario.ploegKd 0.7
param *.node[*].scenario.ploegKp 0.2
param *.node[*].scenario.startOscillating "5 s"
param *.node[*].scenario.useRealisticEngine false
param *.node[*].scenario_type "\"SinusoidalScenario\""
param *.node[*].unicast.packetLossRate 0
param *.obstacles.debug false
param *.playgroundSizeX 65000m
param *.playgroundSizeY 25000m
param *.playgroundSizeZ 50m
param *.world.use2D false
param *.world.useTorus false

vector 0  scenario.node[0].appl  distance  ETV
vector 1  scenario.node[0].appl  relativeSpeed  ETV
vector 2  scenario.node[0].appl  nodeId  ETV
vector 6  scenario.node[0].appl  acceleration  ETV
vector 7  scenario.node[0].appl  controllerAcceleration  ETV
vector 3  scenario.node[0].appl  speed  ETV
vector 4  scenario.node[0].appl  posx  ETV
vector 5  scenario.node[0].appl  posy  ETV
vector 22  scenario.node[1].appl  distance  ETV
vector 23  scenario.node[1].appl  relativeSpeed  ETV
vector 24  scenario.node[1].appl  nodeId  ETV
vector 28  scenario.node[1].appl  acceleration  ETV
vector 29  scenario.node[1].appl  controllerAcceleration  ETV
vector 25  scenario.node[1].appl  speed  ETV
vector 26  scenario.node[1].appl  posx  ETV
vector 27  scenario.node[1].appl  posy  ETV
vector 44  scenario.node[2].appl  distance  ETV
vector 45  scenario.node[2].appl  relativeSpeed  ETV
vector 46  scenario.node[2].appl  nodeId  ETV
vector 50  scenario.node[2].appl  acceleration  ETV
vector 51  scenario.node[2].appl  controllerAcceleration  ETV
vector 47  scenario.node[2].appl  speed  ETV
vector 48  scenario.node[2].appl  posx  ETV
vector 49  scenario.node[2].appl  posy  ETV
vector 66  scenario.node[3].appl  distance  ETV
vector 67  scenario.node[3].appl  relativeSpeed  ETV
vector 68  scenario.node[3].appl  nodeId  ETV
vector 72  scenario.node[3].appl  acceleration  ETV
vector 73  scenario.node[3].appl  controllerAcceleration  ETV
vector 69  scenario.node[3].appl  speed  ETV
vector 70  scenario.node[3].appl  posx  ETV
vector 71  scenario.node[3].appl  posy  ETV
vector 88  scenario.node[4].appl  distance  ETV
vector 89  scenario.node[4].appl  relativeSpeed  ETV
vector 90  scenario.node[4].appl  nodeId  ETV
vector 94  scenario.node[4].appl  acceleration  ETV
vector 95  scenario.node[4].appl  controllerAcceleration  ETV
vector 91  scenario.node[4].appl  speed  ETV
vector 92  scenario.node[4].appl  posx  ETV
vector 93  scenario.node[4].appl  posy  ETV
vector 110  scenario.node[5].appl  distance  ETV
vector 111  scenario.node[5].appl  relativeSpeed  ETV
vector 112  scenario.node[5].appl  nodeId  ETV
vector 116  scenario.node[5].appl  acceleration  ETV
vector 117  scenario.node[5].appl  controllerAcceleration  ETV
vector 113  scenario.node[5].appl  speed  ETV
vector 114  scenario.node[5].appl  posx  ETV
vector 115  scenario.node[5].appl  posy  ETV
vector 132  scenario.node[6].appl  distance  ETV
vector 133  scenario.node[6].appl  relativeSpeed  ETV
vector 134  scenario.node[6].appl  nodeId  ETV
vector 138  scenario.node[6].appl  acceleration  ETV
vector 139  scenario.node[6].appl  controllerAcceleration  ETV
vector 135  scenario.node[6].appl  speed  ETV
vector 136  scenario.node[6].appl  posx  ETV
vector 137  scenario.node[6].appl  posy  ETV
vector 154  scenario.node[7].appl  distance  ETV
vector 155  scenario.node[7].appl  relativeSpeed  ETV
vector 156  scenario.node[7].appl  nodeId  ETV
vector 160  scenario.node[7].appl  acceleration  ETV
vector 161  scenario.node[7].appl  controllerAcceleration  ETV
vector 157  scenario.node[7].appl  speed  ETV
vector 158  scenario.node[7].appl  posx  ETV
vector 159  scenario.node[7].appl  posy  ETV
vector 58  scenario.node[2].prot  frontDelay  ETV
vector 56  scenario.node[2].prot  frontDelayId  ETV
vector 102  scenario.node[4].prot  frontDelay  ETV
vector 100  scenario.node[4].prot  frontDelayId  ETV
vector 146  scenario.node[6].prot  frontDelay  ETV
vector 144  scenario.node[6].prot  frontDelayId  ETV
vector 168  scenario.node[7].prot  frontDelay  ETV
vector 166  scenario.node[7].prot  frontDelayId  ETV
vector 124  scenario.node[5].prot  frontDelay  ETV
vector 122  scenario.node[5].prot  frontDelayId  ETV
vector 35  scenario.node[1].prot  leaderDelay  ETV
vector 33  scenario.node[1].prot  leaderDelayId  ETV
vector 36  scenario.node[1].prot  frontDelay  ETV
vector 34  scenario.node[1].prot  frontDelayId  ETV
vector 57  scenario.node[2].prot  leaderDelay  ETV
vector 55  scenario.node[2].prot  leaderDelayId  ETV
vector 79  scenario.node[3].prot  leaderDelay  ETV
vector 77  scenario.node[3].prot  leaderDelayId  ETV
vector 101  scenario.node[4].prot  leaderDelay  ETV
vector 99  scenario.node[4].prot  leaderDelayId  ETV
vector 123  scenario.node[5].prot  leaderDelay  ETV
vector 121  scenario.node[5].prot  leaderDelayId  ETV
vector 145  scenario.node[6].prot  leaderDelay  ETV
vector 143  scenario.node[6].prot  leaderDelayId  ETV
vector 167  scenario.node[7].prot  leaderDelay  ETV
vector 165  scenario.node[7].prot  leaderDelayId  ETV
vector 80  scenario.node[3].prot  frontDelay  ETV
vector 78  scenario.node[3].prot  frontDelayId  ETV
vector 8  scenario.node[0].prot  nodeId  ETV
vector 9  scenario.node[0].prot  busyTime  ETV
vector 10  scenario.node[0].prot  collisions  ETV
vector 30  scenario.node[1].prot  nodeId  ETV
vector 31  scenario.node[1].prot  busyTime  ETV
vector 32  scenario.node[1].prot  collisions  ETV
vector 52  scenario.node[2].prot  nodeId  ETV
vector 53  scenario.node[2].prot  busyTime  ETV
vector 54  scenario.node[2].prot  collisions  ETV
vector 74  scenario.node[3].prot  nodeId  ETV
vector 75  scenario.node[3].prot  busyTime  ETV
vector 76  scenario.node[3].prot  collisions  ETV
vector 96  scenario.node[4].prot  nodeId  ETV
vector 97  scenario.node[4].prot  busyTime  ETV
vector 98  scenario.node[4].prot  collisions  ETV
vector 118  scenario.node[5].prot  nodeId  ETV
vector 119  scenario.node[5].prot  busyTime  ETV
vector 120  scenario.node[5].prot  collisions  ETV
vector 140  scenario.node[6].prot  nodeId  ETV
vector 141  scenario.node[6].prot  busyTime  ETV
vector 142  scenario.node[6].prot  collisions  ETV
vector 162  scenario.node[7].prot  nodeId  ETV
vector 163  scenario.node[7].prot  busyTime  ETV
vector 164  scenario.node[7].prot  collisions  ETV
7	11237 13860 232 328174 1.11 59.91 589 -1.5 1.5 -14.445969899918 993.24092361736
6	25097 18587 232 328174 1.11 59.91 589 -1.472274679513 1.4513434175798 -12.507264912644 675.29835211523
5	43684 12081 232 328174 1.11 59.91 589 36.55 36.55 21527.95 786846.5725
4	55765 17921 232 328174 1.11 59.91 589 110.9942813872 931.97707988514 307974.83487457 194081430.28763
3	73686 17901 232 328174 1.11 59.91 589 12.599076970844 15.853603639796 8223.2832500118 115251.79065057
1	91587 9725 232 328174 1.11 59.91 589 0 0 0 0
0	101312 10314 232 328174 1.11 59.91 589 -1 -1 -589 589
2	111626 9725 232 328174 1.11 59.91 589 0 0 0 0
10	121351 858 5168 328662 2 60 59 0 0 0 0
9	122209 1154 5168 328662 2 60 59 0.023297 0.02625 1.545797 0.040508375209
8	123363 799 5168 328662 2 60 59 0 0 0 0
29	124162 19462 233 328175 1.11 59.91 589 -1.555555192602 1.5570065793937 -0.45357429710579 530.86493132592
28	143624 19510 233 328175 1.11 59.91 589 -1.4954736405162 1.4761401704378 -0.42968706903679 356.95243836013
27	163134 12670 233 328175 1.11 59.91 589 36.55 36.55 21527.95 786846.5725
26	175804 18496 233 328175 1.11 59.91 589 99.994281387329 910.86889046829 300022.18061077 185009806.19001
25	194300 18490 233 328175 1.11 59.91 589 12.582739554075 15.862412181803 8122.6196548582 112343.83408547
23	212790 19542 233 328175 1.11 59.91 589 -1.2755473628069 2.1868022727363 100.78866780267 299.45744665869
22	232332 18495 233 328175 1.11 59.91 589 4.8022067073391 17.702764611667 5594.6409919021 61771.985924268
24	250827 10314 233 328175 1.11 59.91 589 1 1 589 589
36	261141 23695 1238 328624 1.29780210076 59.997810999645 588 0.099998575179 0.100011950809 58.800007485957 5.8800015064258
35	284836 23695 1238 328624 1.29780210076 59.997810999645 588 0.099998575179 0.100011950809 58.800007485957 5.8800015064258
34	308531 16106 1238 328624 1.29780210076 59.997810999645 588 1 1 588 588
33	324637 16106 1238 328624 1.29780210076 59.997810999645 588 1 1 588 588
32	340743 858 5169 328663 2 60 59 0 0 0 0
31	341601 1213 5169 328663 2 60 59 0.023297 0.02625 1.545797 0.040508375209
30	342814 858 5169 328663 2 60 59 1 1 59 59
51	343672 19408 234 328176 1.11 59.91 589 -1.5092135974097 1.5122039406897 -1.5349168971055 506.65517234266
50	363080 19464 234 328176 1.11 59.91 589 -1.4841297326063 1.4673660724707 -1.568966588629 354.56838905741
49	382544 12670 234 328176 1.11 59.91 589 36.55 36.55 21527.95 786846.5725
48	395214 18498 234 328176 1.11 59.91 589 88.994281387329 892.33168538189 292478.20127955 176812704.44062
47	413712 18491 234 328176 1.11 59.91 589 12.521878033884 15.851008825246 8047.2077058076 110355.44234072
45	432203 19938 234 328176 1.11 59.91 589 -0.010773795665989 0.48477238925253 75.416245921362 27.110414915198
44	452141 18476 234 328176 1.11 59.91 589 6.9921308220552 14.534924410085 5186.4710922358 49834.750648973
46	470617 10314 234 328176 1.11 59.91 589 2 2 1178 2356
58	480931 23686 832 328212 1.212435623764 59.912431234325 588 0.099998575291 0.100011945859 58.799994197633 5.8799988486212
57	504617 23685 1244 328630 1.297802137452 59.997811061509 588 0.099998575216 0.100011950847 58.800007511129 5.8800015114603
56	528302 16114 832 328212 1.212435623764 59.912431234325 588 2 2 1176 2352
55	544416 16115 1244 328630 1.297802137452 59.997811061509 588 2 2 1176 2352
54	560531 858 5170 328664 2 60 59 0 0 0 0
53	561389 1213 5170 328664 2 60 59 0.023296 0.02625 1.545796 0.040508328616
52	562602 858 5170 328664 2 60 59 2 2 118 236
73	563460 19368 235 328177 1.11 59.91 589 -1.4954488815774 1.4986508547754 -2.9496124471691 494.17777143498
72	582828 19426 235 328177 1.11 59.91 589 -1.4697266269408 1.4522561960337 -3.0440698102142 350.06472815736
71	602254 12670 235 328177 1.11 59.91 589 36.55 36.55 21527.95 786846.5725
70	614924 18501 235 328177 1.11 59.91 589 77.994281387329 874.24230416221 285100.05110658 169058161.14039
69	633425 18485 235 328177 1.11 59.91 589 12.173473434805 15.836008806661 7976.262179674 108521.6371023
67	651910 19822 235 328177 1.11 59.91 589 -0.02193620377763 0.43265108153864 70.961215799427 23.108626785147
66	671732 18476 235 328177 1.11 59.91 589 6.9809316343226 14.086421588909 5020.7312624468 46058.227469457
68	690208 10314 235 328177 1.11 59.91 589 3 3 1767 5301
80	700522 23695 1312 328701 1.307224174144 60.007220121893 588 0.099998575235 0.10001194901 58.799994534821 5.8799989160613
79	724217 23686 1250 328636 1.297802174144 59.997811121888 588 0.099998575234 0.100011950896 58.800007534816 5.8800015161976
78	747903 16116 1312 328701 1.307224174144 60.007220121893 588 3 3 1764 5292
77	764019 16110 1250 328636 1.297802174144 59.997811121888 588 3 3 1764 5292
76	780129 858 5171 328665 2 60 59 0 0 0 0
75	780987 1213 5171 328665 2 60 59 0.023297 0.02625 1.545797 0.040508375209
74	782200 858 5171 328665 2 60 59 3 3 177 531
95	783058 19391 236 328178 1.11 59.91 589 -1.5015734358673 1.5060862511444 -4.7410001620082 503.34547829265
94	802449 19438 236 328178 1.11 59.91 589 -1.4671620223636 1.4503898338162 -4.8951161902782 350.96398312002
93	821887 12670 236 328178 1.11 59.91 589 36.55 36.55 21527.95 786846.5725
92	834557 18487 236 328178 1.11 59.91 589 66.994281387329 856.70735261606 277872.34922538 161713195.2632
91	853044 18503 236 328178 1.11 59.91 589 11.894545090458 15.831996514873 7910.8477982545 106865.29461989
89	871547 19826 236 328178 1.11 59.91 589 -0.013223228742319 0.37549649756204 65.444822117573 19.588284924798
88	891373 18470 236 328178 1.11 59.91 589 6.9999999953162 13.531239845064 4870.3935935753 42739.850390119
90	909843 10314 236 328178 1.11 59.91 589 4 4 2356 9424
102	920157 24270 902 328282 1.235039697148 59.935035353168 588 0.099998575322 0.100011945977 58.799994243092 5.8799988577129
101	944427 24290 1256 328642 1.297802210836 59.997811180428 588 0.099998575246 0.100011950958 58.800007556664 5.8800015205672
100	968717 16692 902 328282 1.235039697148 59.935035353168 588 4 4 2352 9408
99	985409 16120 1256 328642 1.297802210836 59.997811180428 588 4 4 2352 9408
98	1001529 858 5172 328666 2 60 59 0 0 0 0
97	1002387 1213 5172 328666 2 60 59 0.023297 0.02625 1.545797 0.040508375209
96	1003600 858 5172 328666 2 60 59 4 4 236 944
117	1004458 19968 237 328179 1.11 59.91 589 -1.5284774903855 1.5300606513299 -6.9279902339401 518.57286367802
116	1024426 20036 237 328179 1.11 59.91 589 -1.4661745218426 1.4484846957759 -7.0852510284507 351.54197320788
115	1044462 13259 237 328179 1.11 59.91 589 36.55 36.55 21527.95 786846.5725
114	1057721 19081 237 328179 1.11 59.91 589 55.994283294678 839.78717229988 270780.75411367 154746727.45887
113	1076802 19082 237 328179 1.11 59.91 589 11.666922897214 15.829041182727 7851.5692079686 105391.473867
111	1095884 20371 237 328179 1.11 59.91 589 -0.02020616952432 0.34215460321549 59.32754144788 16.820025515789
110	1116255 19089 237 328179 1.11 59.91 589 6.976768397757 12.915785362475 4734.4095398997 39873.8200529
112	1135344 10903 237 328179 1.11 59.91 589 5 5 2945 14725
124	1146247 24300 1178 328558 1.297388953992 59.997384735188 588 0.099998575345 0.100011949083 58.799994368268 5.8799988827507
123	1170547 24270 1262 328648 1.297802247528 59.997811236926 588 0.099998575248 0.100011951031 58.80000757647 5.8800015245284
122	1194817 16697 1178 328558 1.297388953992 59.997384735188 588 5 5 2940 14700
121	1211514 16694 1262 328648 1.297802247528 59.997811236926 588 5 5 2940 14700
120	1228208 917 5173 328667 2 60 59 0 0 0 0
119	1229125 1272 5173 328667 2 60 59 0.023297 0.02625 1.545797 0.040508375209
118	1230397 917 5173 328667 2 60 59 5 5 295 1475
139	1231314 19960 238 328180 1.11 59.91 589 -1.4999727101691 1.5046152425958 -9.2524771274066 500.91527378698
138	1251274 20000 238 328180 1.11 59.91 589 -1.4605505414469 1.4432664548902 -9.5361372939387 349.24160094932
137	1271274 13259 238 328180 1.11 59.91 589 36.55 36.55 21527.95 786846.5725
136	1284533 19083 238 328180 1.11 59.91 589 44.994283294678 823.52995721267 263802.80175761 148118357.34483
135	1303616 19067 238 328180 1.11 59.91 589 11.484678623066 15.821388946288 7798.9112193794 104101.67462627
133	1322683 20387 238 328180 1.11 59.91 589 -0.021674888934117 0.31358944397942 52.728841099475 13.842390668549
132	1343070 19057 238 328180 1.11 59.91 589 6.9964405635409 12.252306587541 4620.899196292 37547.818330643
134	1362127 10903 238 328180 1.11 59.91 589 6 6 3534 21204
146	1373030 24300 970 328350 1.248712770532 59.948708463875 588 0.099998575329 0.100011948668 58.799994280415 5.8799988651801
145	1397330 24282 1268 328654 1.29780228422 59.997811291219 588 0.099998575251 0.100011951113 58.800007594071 5.8800015280486
144	1421612 16714 970 328350 1.248712770532 59.948708463875 588 6 6 3528 21168
143	1438326 16699 1268 328654 1.29780228422 59.997811291219 588 6 6 3528 21168
142	1455025 917 5174 328668 2 60 59 0 0 0 0
141	1455942 1272 5174 328668 2 60 59 0.023297 0.02625 1.545797 0.040508375209
140	1457214 917 5174 328668 2 60 59 6 6 354 2124
161	1458131 19957 239 328181 1.11 59.91 589 -1.509393506231 1.5126459099554 -11.850823032034 509.52321939612
160	1478088 20019 239 328181 1.11 59.91 589 -1.4619692834163 1.4451435686761 -12.135050617566 351.03178852792
159	1498107 13259 239 328181 1.11 59.91 589 36.55 36.55 21527.95 786846.5725
158	1511366 19089 239 328181 1.11 59.91 589 33.994282817841 807.95414066269 256923.30042322 141798404.90985
157	1530455 19095 239 328181 1.11 59.91 589 11.336258020688 15.823091754854 7753.0620781978 102999.50556447
155	1549550 20437 239 328181 1.11 59.91 589 -0.021906761867687 0.28967145093848 45.944502554483 11.091934684037
154	1569987 19080 239 328181 1.11 59.91 589 6.9915517824016 11.570611609658 4522.5843515688 35620.07528125
156	1589067 10903 239 328181 1.11 59.91 589 7 7 4123 28861
168	1599970 24270 1040 328420 1.263893807224 59.963889515874 588 0.099998575332 0.1000119494 58.799994295722 5.8799988682416
167	1624240 24274 1274 328660 1.297802320912 59.997811343244 588 0.099998575255 0.1000119512 58.800007609404 5.8800015311153
166	1648514 16699 1040 328420 1.263893807224 59.963889515874 588 7 7 4116 28812
165	1665213 16694 1274 328660 1.297802320912 59.997811343244 588 7 7 4116 28812
164	1681907 917 5175 328669 2 60 59 0 0 0 0
163	1682824 1272 5175 328669 2 60 59 0.023297 0.02625 1.545797 0.040508375209
162	1684096 917 5175 328669 2 60 59 7 7 413 2891
