file 1142038 1501676656                                         
version 2
run SinusoidalJammingDetail-701-20170802-14:23:54-45600
attr CACCSpacing 20
attr attackAcc -30
attr attackPos 7
attr attackSpeed 150
attr attackStart 31
attr attacker 1
attr beaconInterval 0.1
attr configname SinusoidalJammingDetail
attr controller 1
attr datetime 20170802-14:23:54
attr experiment SinusoidalJammingDetail
attr fakeAcc "(1 == 4)"
attr fakePos "(1 == 2)"
attr fakeSpeed "(1 == 3)"
attr inifile omnetpp_701.ini
attr iterationvars "$leaderSpeed=120, $controller=1, $CACCSpacing=20, $sController=\"CACC\", $attacker=1, $attackStart=31, $attackSpeed=150, $attackPos=7, $attackAcc=-30, $0=20, $1=0, $nCars=8, $platoonSize=8, $nLanes=1, $beaconInterval=0.1, $priority=2, $packetSize=200, $ploegH=0.5, $leaderHeadway=1.2, $fakeSpeed=(1 == 3), $fakeAcc=(1 == 4), $fakePos=(1 == 2)"
attr iterationvarsf leaderSpeed=120,controller=1,CACCSpacing=20,sController=CACC,attacker=1,attackStart=31,attackSpeed=150,attackPos=7,attackAcc=-30,20,0,nCars=8,platoonSize=8,nLanes=1,beaconInterval=0.1,priority=2,packetSize=200,ploegH=0.5,leaderHeadway=1.2,fakeSpeed=(1_==_3),fakeAcc=(1_==_4),fakePos=(1_==_2)-
attr leaderHeadway 1.2
attr leaderSpeed 120
attr measurement "$leaderSpeed=120, $controller=1, $CACCSpacing=20, $sController=\"CACC\", $attacker=1, $attackStart=31, $attackSpeed=150, $attackPos=7, $attackAcc=-30, $0=20, $1=0, $nCars=8, $platoonSize=8, $nLanes=1, $beaconInterval=0.1, $priority=2, $packetSize=200, $ploegH=0.5, $leaderHeadway=1.2, $fakeSpeed=(1 == 3), $fakeAcc=(1 == 4), $fakePos=(1 == 2)"
attr nCars 8
attr nLanes 1
attr network scenario
attr packetSize 200
attr platoonSize 8
attr ploegH 0.5
attr priority 2
attr processid 45600
attr repetition 1
attr replication #1
attr resultdir results
attr runnumber 701
attr sController "\"CACC\""
attr seedset 1
param **.coreDebug false
param **.debug false
param **.headway 0.1s
param **.numberOfCars 8
param **.numberOfCarsPerPlatoon 8
param **.numberOfLanes 1
param **.numericController 1
param **.traffic.nCars 8
param **.traffic.nLanes 1
param **.traffic.platoonInsertDistance 20m
param **.traffic.platoonInsertHeadway 0s
param **.traffic.platoonInsertSpeed 120kmph
param **.traffic.platoonInsertTime "1 s"
param **.traffic.platoonLeaderHeadway 1.2s
param **.traffic.platoonSize 8
param **.traffic.platooningVType "\"vtypeauto\""
param **.traffic_type "\"PlatoonsTrafficManager\""
param *.**.nic.mac1609_4.bitrate 6Mbps
param *.**.nic.mac1609_4.txPower 100mW
param *.**.nic.mac1609_4.useServiceChannel false
param *.**.nic.phy80211p.analogueModels "xmldoc(\"config.xml\")"
param *.**.nic.phy80211p.decider "xmldoc(\"config.xml\")"
param *.**.nic.phy80211p.maxTXPower 100mW
param *.**.nic.phy80211p.sensitivity -94dBm
param *.**.nic.phy80211p.thermalNoise -95dBm
param *.**.nic.phy80211p.usePropagationDelay true
param *.**.nic.phy80211p.useThermalNoise true
param *.annotations.draw false
param *.connectionManager.alpha 2.0
param *.connectionManager.carrierFrequency "5.890e9 Hz"
param *.connectionManager.pMax 100mW
param *.connectionManager.sat -94dBm
param *.connectionManager.sendDirect true
param *.manager.autoShutdown true
param *.manager.commandLine "\"sumo --remote-port $port --seed $seed --configuration-file $configFile\""
param *.manager.configFile "\"./sumocfg/freeway.sumo.cfg\""
param *.manager.host "\"localhost\""
param *.manager.margin 25
param *.manager.moduleDisplayString "\"\""
param *.manager.moduleName "\"node\""
param *.manager.moduleType "\"Car\""
param *.manager.updateInterval 0.01s
param *.node[*].appl.attackStart 31s
param *.node[*].appl.attackerType 1
param *.node[*].appl.simulationDuration "60 s"
param *.node[*].appl_type "\"SimplePlatooningApp\""
param *.node[*].helper.nCars 8
param *.node[*].helper.nLanes 1
param *.node[*].helper.platoonSize 8
param *.node[*].helper_type "\"PositionHelper\""
param *.node[*].mobility.x 0
param *.node[*].mobility.y 0
param *.node[*].mobility.z 1.895
param *.node[*].prot.attackStart 31s
param *.node[*].prot.attackerType 1
param *.node[*].prot.attackingNode 3
param *.node[*].prot.beaconingInterval 0.1s
param *.node[*].prot.fakeAcc "(1 == 4)"
param *.node[*].prot.fakePos "(1 == 2)"
param *.node[*].prot.fakeSpeed "(1 == 3)"
param *.node[*].prot.maliciousAcc "-30 mpss"
param *.node[*].prot.maliciousSpeed 150kmph
param *.node[*].prot.packetSize 200
param *.node[*].prot.priority 2
param *.node[*].prot.shiftX "7 m"
param *.node[*].prot.useControllerAcceleration true
param *.node[*].protocol_type "\"SimplePlatooningBeaconing\""
param *.node[*].scenario.accHeadway 0.1s
param *.node[*].scenario.caccC1 0.5
param *.node[*].scenario.caccOmegaN "0.2 Hz"
param *.node[*].scenario.caccSpacing 20m
param *.node[*].scenario.caccXi 1
param *.node[*].scenario.controller "\"CACC\""
param *.node[*].scenario.engineTau "0.5 s"
param *.node[*].scenario.leaderHeadway 1.2s
param *.node[*].scenario.leaderOscillationFrequency "0.2 Hz"
param *.node[*].scenario.leaderSpeed 120kmph
param *.node[*].scenario.oscillationAmplitude "10 kmph"
param *.node[*].scenario.ploegH 0.5s
param *.node[*].scenario.ploegKd 0.7
param *.node[*].scenario.ploegKp 0.2
param *.node[*].scenario.startOscillating "5 s"
param *.node[*].scenario.useRealisticEngine false
param *.node[*].scenario_type "\"SinusoidalScenario\""
param *.node[*].unicast.packetLossRate 0
param *.obstacles.debug false
param *.playgroundSizeX 65000m
param *.playgroundSizeY 25000m
param *.playgroundSizeZ 50m
param *.world.use2D false
param *.world.useTorus false

vector 0  scenario.node[0].appl  distance  ETV
vector 1  scenario.node[0].appl  relativeSpeed  ETV
vector 2  scenario.node[0].appl  nodeId  ETV
vector 6  scenario.node[0].appl  acceleration  ETV
vector 7  scenario.node[0].appl  controllerAcceleration  ETV
vector 3  scenario.node[0].appl  speed  ETV
vector 4  scenario.node[0].appl  posx  ETV
vector 5  scenario.node[0].appl  posy  ETV
vector 22  scenario.node[1].appl  distance  ETV
vector 23  scenario.node[1].appl  relativeSpeed  ETV
vector 24  scenario.node[1].appl  nodeId  ETV
vector 28  scenario.node[1].appl  acceleration  ETV
vector 29  scenario.node[1].appl  controllerAcceleration  ETV
vector 25  scenario.node[1].appl  speed  ETV
vector 26  scenario.node[1].appl  posx  ETV
vector 27  scenario.node[1].appl  posy  ETV
vector 44  scenario.node[2].appl  distance  ETV
vector 45  scenario.node[2].appl  relativeSpeed  ETV
vector 46  scenario.node[2].appl  nodeId  ETV
vector 50  scenario.node[2].appl  acceleration  ETV
vector 51  scenario.node[2].appl  controllerAcceleration  ETV
vector 47  scenario.node[2].appl  speed  ETV
vector 48  scenario.node[2].appl  posx  ETV
vector 49  scenario.node[2].appl  posy  ETV
vector 66  scenario.node[3].appl  distance  ETV
vector 67  scenario.node[3].appl  relativeSpeed  ETV
vector 68  scenario.node[3].appl  nodeId  ETV
vector 72  scenario.node[3].appl  acceleration  ETV
vector 73  scenario.node[3].appl  controllerAcceleration  ETV
vector 69  scenario.node[3].appl  speed  ETV
vector 70  scenario.node[3].appl  posx  ETV
vector 71  scenario.node[3].appl  posy  ETV
vector 88  scenario.node[4].appl  distance  ETV
vector 89  scenario.node[4].appl  relativeSpeed  ETV
vector 90  scenario.node[4].appl  nodeId  ETV
vector 94  scenario.node[4].appl  acceleration  ETV
vector 95  scenario.node[4].appl  controllerAcceleration  ETV
vector 91  scenario.node[4].appl  speed  ETV
vector 92  scenario.node[4].appl  posx  ETV
vector 93  scenario.node[4].appl  posy  ETV
vector 110  scenario.node[5].appl  distance  ETV
vector 111  scenario.node[5].appl  relativeSpeed  ETV
vector 112  scenario.node[5].appl  nodeId  ETV
vector 116  scenario.node[5].appl  acceleration  ETV
vector 117  scenario.node[5].appl  controllerAcceleration  ETV
vector 113  scenario.node[5].appl  speed  ETV
vector 114  scenario.node[5].appl  posx  ETV
vector 115  scenario.node[5].appl  posy  ETV
vector 132  scenario.node[6].appl  distance  ETV
vector 133  scenario.node[6].appl  relativeSpeed  ETV
vector 134  scenario.node[6].appl  nodeId  ETV
vector 138  scenario.node[6].appl  acceleration  ETV
vector 139  scenario.node[6].appl  controllerAcceleration  ETV
vector 135  scenario.node[6].appl  speed  ETV
vector 136  scenario.node[6].appl  posx  ETV
vector 137  scenario.node[6].appl  posy  ETV
vector 154  scenario.node[7].appl  distance  ETV
vector 155  scenario.node[7].appl  relativeSpeed  ETV
vector 156  scenario.node[7].appl  nodeId  ETV
vector 160  scenario.node[7].appl  acceleration  ETV
vector 161  scenario.node[7].appl  controllerAcceleration  ETV
vector 157  scenario.node[7].appl  speed  ETV
vector 158  scenario.node[7].appl  posx  ETV
vector 159  scenario.node[7].appl  posy  ETV
vector 58  scenario.node[2].prot  frontDelay  ETV
vector 56  scenario.node[2].prot  frontDelayId  ETV
vector 102  scenario.node[4].prot  frontDelay  ETV
vector 100  scenario.node[4].prot  frontDelayId  ETV
vector 146  scenario.node[6].prot  frontDelay  ETV
vector 144  scenario.node[6].prot  frontDelayId  ETV
vector 168  scenario.node[7].prot  frontDelay  ETV
vector 166  scenario.node[7].prot  frontDelayId  ETV
vector 124  scenario.node[5].prot  frontDelay  ETV
vector 122  scenario.node[5].prot  frontDelayId  ETV
vector 35  scenario.node[1].prot  leaderDelay  ETV
vector 33  scenario.node[1].prot  leaderDelayId  ETV
vector 36  scenario.node[1].prot  frontDelay  ETV
vector 34  scenario.node[1].prot  frontDelayId  ETV
vector 57  scenario.node[2].prot  leaderDelay  ETV
vector 55  scenario.node[2].prot  leaderDelayId  ETV
vector 79  scenario.node[3].prot  leaderDelay  ETV
vector 77  scenario.node[3].prot  leaderDelayId  ETV
vector 101  scenario.node[4].prot  leaderDelay  ETV
vector 99  scenario.node[4].prot  leaderDelayId  ETV
vector 123  scenario.node[5].prot  leaderDelay  ETV
vector 121  scenario.node[5].prot  leaderDelayId  ETV
vector 145  scenario.node[6].prot  leaderDelay  ETV
vector 143  scenario.node[6].prot  leaderDelayId  ETV
vector 167  scenario.node[7].prot  leaderDelay  ETV
vector 165  scenario.node[7].prot  leaderDelayId  ETV
vector 80  scenario.node[3].prot  frontDelay  ETV
vector 78  scenario.node[3].prot  frontDelayId  ETV
vector 8  scenario.node[0].prot  nodeId  ETV
vector 9  scenario.node[0].prot  busyTime  ETV
vector 10  scenario.node[0].prot  collisions  ETV
vector 30  scenario.node[1].prot  nodeId  ETV
vector 31  scenario.node[1].prot  busyTime  ETV
vector 32  scenario.node[1].prot  collisions  ETV
vector 52  scenario.node[2].prot  nodeId  ETV
vector 53  scenario.node[2].prot  busyTime  ETV
vector 54  scenario.node[2].prot  collisions  ETV
vector 74  scenario.node[3].prot  nodeId  ETV
vector 75  scenario.node[3].prot  busyTime  ETV
vector 76  scenario.node[3].prot  collisions  ETV
vector 96  scenario.node[4].prot  nodeId  ETV
vector 97  scenario.node[4].prot  busyTime  ETV
vector 98  scenario.node[4].prot  collisions  ETV
vector 118  scenario.node[5].prot  nodeId  ETV
vector 119  scenario.node[5].prot  busyTime  ETV
vector 120  scenario.node[5].prot  collisions  ETV
vector 140  scenario.node[6].prot  nodeId  ETV
vector 141  scenario.node[6].prot  busyTime  ETV
vector 142  scenario.node[6].prot  collisions  ETV
vector 162  scenario.node[7].prot  nodeId  ETV
vector 163  scenario.node[7].prot  busyTime  ETV
vector 164  scenario.node[7].prot  collisions  ETV
7	11241 9504 232 223871 1.11 41.21 402 -1.5 1.5 4.8219975943887 657.45678298732
6	20745 12638 232 223871 1.11 41.21 402 -1.4722746795918 1.4513430531451 -2.6959960633292 439.02602821228
5	33383 8154 232 223871 1.11 41.21 402 36.55 36.55 14693.1 537032.805
4	41537 12125 232 223871 1.11 41.21 402 203.93872566263 1543.6641140869 351990.58763848 368653102.88347
3	53662 12133 232 223871 1.11 41.21 402 32.043522766022 35.298048086563 13430.483012621 449004.03984279
1	65795 6546 232 223871 1.11 41.21 402 0 0 0 0
0	72341 6948 232 223871 1.11 41.21 402 -1 -1 -402 402
2	79289 6546 232 223871 1.11 41.21 402 0 0 0 0
10	85835 573 5168 222680 2 41 40 0 0 0 0
9	86408 774 5168 222680 2 41 40 0.023297 0.02625 1.047047 0.027416187709
8	87182 533 5168 222680 2 41 40 0 0 0 0
51	87715 12939 234 223873 1.11 41.21 402 -1.5013789091423 1.5 27.203929253559 490.74088510267
50	100654 13066 234 223873 1.11 41.21 402 -1.4795465244234 1.4451253710995 27.976691495718 348.83514884493
49	113720 8556 234 223873 1.11 41.21 402 36.55 36.55 14693.1 537032.805
48	122276 12531 234 223873 1.11 41.21 402 155.93872566223 1521.4598232196 333613.09523572 338470793.27719
47	134807 12535 234 223873 1.11 41.21 402 32.036076308684 36.722560556332 13689.525050263 466979.78999482
45	147342 13747 234 223873 1.11 41.21 402 -1.0153838721746 0.013626155299463 -59.950324243351 51.02176240079
44	161089 12504 234 223873 1.11 41.21 402 14.078717736087 20.082651895225 7863.6947642745 154466.89774237
46	173593 6948 234 223873 1.11 41.21 402 2 2 804 1608
58	180541 16079 832 223915 1.212436360941 41.212438360282 401 0.099998996689 0.100012284181 40.100001280227 4.0100002597066
57	196620 16056 1244 223770 1.297803481717 41.197806239776 400 0.099998997369 0.100012284288 40.000002038945 4.0000004114505
56	212676 10899 832 223915 1.212436360941 41.212438360282 401 2 2 802 1604
55	223575 10882 1244 223770 1.297803481717 41.197806239776 400 2 2 800 1600
54	234457 573 5170 222682 2 41 40 0 0 0 0
53	235030 814 5170 222682 2 41 40 0.023296 0.02625 1.047046 0.027416141116
52	235844 573 5170 222682 2 41 40 2 2 80 160
73	236417 12999 235 223874 1.11 41.21 402 -1.4907242808754 1.4960972902313 35.6102095873 485.69163473012
72	249416 13042 235 223874 1.11 41.21 402 -1.4676550409241 1.4431325484544 36.594501265393 350.97851169984
71	262458 8556 235 223874 1.11 41.21 402 36.55 36.55 14693.1 537032.805
70	271014 12512 235 223874 1.11 41.21 402 131.93872566223 1501.6435699751 324095.30749947 323052895.28389
69	283526 12523 235 223874 1.11 41.21 402 32.044252025561 37.338067931154 13731.66446901 470078.28633542
67	296049 13723 235 223874 1.11 41.21 402 -0.85982024299776 0.014939202841234 -42.41918566181 27.155077980175
66	309772 12506 235 223874 1.11 41.21 402 15.833497504597 20.04250348122 7910.6305246268 155942.91703386
68	322278 6948 235 223874 1.11 41.21 402 3 3 1206 3618
80	329226 16035 1312 223839 1.307225561772 41.207215305905 400 0.099998997082 0.100012284027 39.999989025019 3.9999978085188
79	345261 16020 1250 223776 1.297803561772 41.197806305933 400 0.099998997081 0.100012284283 40.000002025047 4.0000004086709
78	361281 10873 1312 223839 1.307225561772 41.207215305905 400 3 3 1200 3600
77	372154 10862 1250 223776 1.297803561772 41.197806305933 400 3 3 1200 3600
76	383016 573 5171 222683 2 41 40 0 0 0 0
75	383589 814 5171 222683 2 41 40 0.023297 0.02625 1.047047 0.027416187709
74	384403 573 5171 222683 2 41 40 3 3 120 360
95	384976 12982 236 223875 1.11 41.21 402 -1.4989614374635 1.5005025351594 42.905264678435 498.38885805065
94	397958 13057 236 223875 1.11 41.21 402 -1.4660391951104 1.4462525366966 43.423293344429 355.3477231769
93	411015 8556 236 223875 1.11 41.21 402 36.55 36.55 14693.1 537032.805
92	419571 12526 236 223875 1.11 41.21 402 107.93872566223 1480.5201013622 314530.1414797 307958269.39446
91	432097 12527 236 223875 1.11 41.21 402 32.043126803227 37.839246623008 13760.668011907 472244.87109122
89	444624 13747 236 223875 1.11 41.21 402 -0.6768277582167 0.014072255298373 -29.369487909188 13.646569715208
88	458371 12503 236 223875 1.11 41.21 402 17.1370455481 20.006724633566 7957.7460906265 157647.89503552
90	470874 6948 236 223875 1.11 41.21 402 4 4 1608 6432
102	477822 16472 902 223985 1.235040521052 41.235042496797 401 0.099998996176 0.100012284185 40.100001256631 4.0100002549874
101	494294 16438 1256 223782 1.297803641828 41.197806376439 400 0.099998996856 0.100012284278 40.000002015497 4.0000004067609
100	510732 11298 902 223985 1.235040521052 41.235042496797 401 4 4 1604 6416
99	522030 10873 1256 223782 1.297803641828 41.197806376439 400 4 4 1600 6400
98	532903 573 5172 222684 2 41 40 0 0 0 0
97	533476 814 5172 222684 2 41 40 0.023297 0.02625 1.047047 0.027416187709
96	534290 573 5172 222684 2 41 40 4 4 160 640
117	534863 13275 237 223876 1.11 41.21 402 -1.5271094748652 1.525553204654 48.961041437469 515.61857863847
116	548138 13436 237 223876 1.11 41.21 402 -1.4653751946931 1.4466599061294 48.676097257823 358.48101026902
115	561574 8958 237 223876 1.11 41.21 402 36.55 36.55 14693.1 537032.805
114	570532 12938 237 223876 1.11 41.21 402 83.938725662231 1458.4117308448 304930.43730193 293224942.29531
113	583470 12942 237 223876 1.11 41.21 402 32.044261135043 38.254091853273 13779.767865772 473691.8072709
111	596412 14049 237 223876 1.11 41.21 402 -0.52224577650901 0.020213348238279 -19.534086799245 6.8926475723278
110	610461 12908 237 223876 1.11 41.21 402 18.118844340519 20.0447671682 7992.0861748491 158935.68544767
112	623369 7350 237 223876 1.11 41.21 402 5 5 2010 10050
124	630719 16456 1178 223704 1.297390081439 41.197380028344 400 0.099998999857 0.100012284085 39.999989227791 3.9999978490732
123	647175 16429 1262 223788 1.297803721883 41.197806450219 400 0.099998996682 0.100012284284 40.000002009222 4.0000004055059
122	663604 11281 1178 223704 1.297390081439 41.197380028344 400 5 5 2000 10000
121	674885 11273 1262 223788 1.297803721883 41.197806450219 400 5 5 2000 10000
120	686158 613 5173 222685 2 41 40 0 0 0 0
119	686771 854 5173 222685 2 41 40 0.023297 0.02625 1.047047 0.027416187709
118	687625 613 5173 222685 2 41 40 5 5 200 1000
139	688238 13388 238 223877 1.11 41.21 402 -1.4994812221703 1.5010910305918 52.625367239852 500.7903456706
138	701626 13419 238 223877 1.11 41.21 402 -1.4608902135826 1.4424475003096 52.499264907038 358.24022874513
137	715045 8958 238 223877 1.11 41.21 402 36.55 36.55 14693.1 537032.805
136	724003 12936 238 223877 1.11 41.21 402 59.93872756958 1435.6800578317 295317.72433957 278911990.5324
135	736939 12921 238 223877 1.11 41.21 402 32.050372135363 38.586676953149 13792.584142566 474665.66390235
133	749860 14045 238 223877 1.11 41.21 402 -0.37698059761574 0.021050547991663 -13.303037766267 3.1380431572393
132	763905 12929 238 223877 1.11 41.21 402 18.739228768028 20.006916450641 8004.9692879009 159421.66147966
134	776834 7350 238 223877 1.11 41.21 402 6 6 2412 14472
146	784184 16483 970 224053 1.248713681163 41.248715646294 401 0.099999000503 0.100012284096 40.100001246017 4.0100002528624
145	800667 16422 1268 223794 1.297803801938 41.197806526069 400 0.099998996558 0.100012284283 40.000002005017 4.0000004046649
144	817089 11314 970 224053 1.248713681163 41.248715646294 401 6 6 2406 14436
143	828403 11271 1268 223794 1.297803801938 41.197806526069 400 6 6 2400 14400
142	839674 613 5174 222686 2 41 40 0 0 0 0
141	840287 854 5174 222686 2 41 40 0.023297 0.02625 1.047047 0.027416187709
140	841141 613 5174 222686 2 41 40 6 6 240 1440
161	841754 12590 239 223878 1.11 41.21 402 -1.5084785507466 1.5101632589192 55.549618166981 509.0366003227
160	854344 13416 239 223878 1.11 41.21 402 -1.4625053121662 1.4442535707133 55.174534362015 360.83824228552
159	867760 8958 239 223878 1.11 41.21 402 36.55 36.55 14693.1 537032.805
158	876718 12920 239 223878 1.11 41.21 402 35.938727092743 1412.5283841602 285690.64071895 265024441.44875
157	889638 12944 239 223878 1.11 41.21 402 32.049311979984 38.849320460498 13801.160599158 475322.67822454
155	902582 14123 239 223878 1.11 41.21 402 -0.26545776793612 0.022636842417498 -9.1014492410296 1.4762000249557
154	916705 12929 239 223878 1.11 41.21 402 19.15698675453 20.011309524136 8019.2551497467 159980.23179088
156	929634 7350 239 223878 1.11 41.21 402 7 7 2814 19698
168	936984 16445 1040 224123 1.263894761218 41.263896723475 401 0.099999000416 0.100012284096 40.100001243143 4.0100002522874
167	953429 16421 1274 223800 1.297803881994 41.197806603313 400 0.099998996471 0.100012284279 40.000002002205 4.0000004041025
166	969850 11284 1040 224123 1.263894761218 41.263896723475 401 7 7 2807 19649
165	981134 11271 1274 223800 1.297803881994 41.197806603313 400 7 7 2800 19600
164	992405 613 5175 222687 2 41 40 0 0 0 0
163	993018 854 5175 222687 2 41 40 0.023297 0.02625 1.047047 0.027416187709
162	993872 613 5175 222687 2 41 40 7 7 280 1960
22	994485 12558 233 224159 1.11 41.29 403 0 20.498972158322 7302.9784792324 141820.38402734
23	1007043 13370 233 224159 1.11 41.29 403 -3.8980505044782 0.22667036804342 -201.23223108412 574.00287873491
24	1020413 6966 233 224159 1.11 41.29 403 1 1 403 403
25	1027379 12564 233 224159 1.11 41.29 403 32.032530439049 35.992646179795 13664.856915215 463902.09350558
26	1039943 12572 233 224159 1.11 41.29 403 179.93872566223 1542.3269951979 344625.92155044 356560106.2374
27	1052515 8578 233 224159 1.11 41.29 403 36.55 36.55 14729.65 538368.7075
28	1061093 13103 233 224159 1.11 41.29 403 -1.4899163862623 1.4506836310161 17.567517042507 345.70278141234
29	1074196 12068 233 224159 1.11 41.29 403 -1.5466261382566 1.54276192796 15.327611140081 502.45808164099
30	1086264 573 5169 222681 2 41 40 1 1 40 40
31	1086837 814 5169 222681 2 41 40 0.023297 0.02625 1.047047 0.027416187709
32	1087651 573 5169 222681 2 41 40 0 0 0 0
33	1088224 10872 1238 223764 1.297803401661 41.197806179472 400 1 1 400 400
34	1099096 10872 1238 223764 1.297803401661 41.197806179472 400 1 1 400 400
35	1109968 16035 1238 223764 1.297803401661 41.197806179472 400 0.099998997708 0.100012284313 40.000002058697 4.0000004154009
36	1126003 16035 1238 223764 1.297803401661 41.197806179472 400 0.099998997708 0.100012284313 40.000002058697 4.0000004154009
