file 1255861 1501676170                                         
version 2
run SinusoidalJammingDetail-518-20170802-14:15:46-18180
attr CACCSpacing 20
attr attackAcc -30
attr attackPos 7
attr attackSpeed 150
attr attackStart 30.5
attr attacker 1
attr beaconInterval 0.1
attr configname SinusoidalJammingDetail
attr controller 1
attr datetime 20170802-14:15:46
attr experiment SinusoidalJammingDetail
attr fakeAcc "(1 == 4)"
attr fakePos "(1 == 2)"
attr fakeSpeed "(1 == 3)"
attr inifile omnetpp_518.ini
attr iterationvars "$leaderSpeed=100, $controller=1, $CACCSpacing=20, $sController=\"CACC\", $attacker=1, $attackStart=30.5, $attackSpeed=150, $attackPos=7, $attackAcc=-30, $0=20, $1=0, $nCars=8, $platoonSize=8, $nLanes=1, $beaconInterval=0.1, $priority=2, $packetSize=200, $ploegH=0.5, $leaderHeadway=1.2, $fakeSpeed=(1 == 3), $fakeAcc=(1 == 4), $fakePos=(1 == 2)"
attr iterationvarsf leaderSpeed=100,controller=1,CACCSpacing=20,sController=CACC,attacker=1,attackStart=30.5,attackSpeed=150,attackPos=7,attackAcc=-30,20,0,nCars=8,platoonSize=8,nLanes=1,beaconInterval=0.1,priority=2,packetSize=200,ploegH=0.5,leaderHeadway=1.2,fakeSpeed=(1_==_3),fakeAcc=(1_==_4),fakePos=(1_==_2)-
attr leaderHeadway 1.2
attr leaderSpeed 100
attr measurement "$leaderSpeed=100, $controller=1, $CACCSpacing=20, $sController=\"CACC\", $attacker=1, $attackStart=30.5, $attackSpeed=150, $attackPos=7, $attackAcc=-30, $0=20, $1=0, $nCars=8, $platoonSize=8, $nLanes=1, $beaconInterval=0.1, $priority=2, $packetSize=200, $ploegH=0.5, $leaderHeadway=1.2, $fakeSpeed=(1 == 3), $fakeAcc=(1 == 4), $fakePos=(1 == 2)"
attr nCars 8
attr nLanes 1
attr network scenario
attr packetSize 200
attr platoonSize 8
attr ploegH 0.5
attr priority 2
attr processid 18180
attr repetition 3
attr replication #3
attr resultdir results
attr runnumber 518
attr sController "\"CACC\""
attr seedset 3
param **.coreDebug false
param **.debug false
param **.headway 0.1s
param **.numberOfCars 8
param **.numberOfCarsPerPlatoon 8
param **.numberOfLanes 1
param **.numericController 1
param **.traffic.nCars 8
param **.traffic.nLanes 1
param **.traffic.platoonInsertDistance 20m
param **.traffic.platoonInsertHeadway 0s
param **.traffic.platoonInsertSpeed 100kmph
param **.traffic.platoonInsertTime "1 s"
param **.traffic.platoonLeaderHeadway 1.2s
param **.traffic.platoonSize 8
param **.traffic.platooningVType "\"vtypeauto\""
param **.traffic_type "\"PlatoonsTrafficManager\""
param *.**.nic.mac1609_4.bitrate 6Mbps
param *.**.nic.mac1609_4.txPower 100mW
param *.**.nic.mac1609_4.useServiceChannel false
param *.**.nic.phy80211p.analogueModels "xmldoc(\"config.xml\")"
param *.**.nic.phy80211p.decider "xmldoc(\"config.xml\")"
param *.**.nic.phy80211p.maxTXPower 100mW
param *.**.nic.phy80211p.sensitivity -94dBm
param *.**.nic.phy80211p.thermalNoise -95dBm
param *.**.nic.phy80211p.usePropagationDelay true
param *.**.nic.phy80211p.useThermalNoise true
param *.annotations.draw false
param *.connectionManager.alpha 2.0
param *.connectionManager.carrierFrequency "5.890e9 Hz"
param *.connectionManager.pMax 100mW
param *.connectionManager.sat -94dBm
param *.connectionManager.sendDirect true
param *.manager.autoShutdown true
param *.manager.commandLine "\"sumo --remote-port $port --seed $seed --configuration-file $configFile\""
param *.manager.configFile "\"./sumocfg/freeway.sumo.cfg\""
param *.manager.host "\"localhost\""
param *.manager.margin 25
param *.manager.moduleDisplayString "\"\""
param *.manager.moduleName "\"node\""
param *.manager.moduleType "\"Car\""
param *.manager.updateInterval 0.01s
param *.node[*].appl.attackStart 30.5s
param *.node[*].appl.attackerType 1
param *.node[*].appl.simulationDuration "60 s"
param *.node[*].appl_type "\"SimplePlatooningApp\""
param *.node[*].helper.nCars 8
param *.node[*].helper.nLanes 1
param *.node[*].helper.platoonSize 8
param *.node[*].helper_type "\"PositionHelper\""
param *.node[*].mobility.x 0
param *.node[*].mobility.y 0
param *.node[*].mobility.z 1.895
param *.node[*].prot.attackStart 30.5s
param *.node[*].prot.attackerType 1
param *.node[*].prot.attackingNode 3
param *.node[*].prot.beaconingInterval 0.1s
param *.node[*].prot.fakeAcc "(1 == 4)"
param *.node[*].prot.fakePos "(1 == 2)"
param *.node[*].prot.fakeSpeed "(1 == 3)"
param *.node[*].prot.maliciousAcc "-30 mpss"
param *.node[*].prot.maliciousSpeed 150kmph
param *.node[*].prot.packetSize 200
param *.node[*].prot.priority 2
param *.node[*].prot.shiftX "7 m"
param *.node[*].prot.useControllerAcceleration true
param *.node[*].protocol_type "\"SimplePlatooningBeaconing\""
param *.node[*].scenario.accHeadway 0.1s
param *.node[*].scenario.caccC1 0.5
param *.node[*].scenario.caccOmegaN "0.2 Hz"
param *.node[*].scenario.caccSpacing 20m
param *.node[*].scenario.caccXi 1
param *.node[*].scenario.controller "\"CACC\""
param *.node[*].scenario.engineTau "0.5 s"
param *.node[*].scenario.leaderHeadway 1.2s
param *.node[*].scenario.leaderOscillationFrequency "0.2 Hz"
param *.node[*].scenario.leaderSpeed 100kmph
param *.node[*].scenario.oscillationAmplitude "10 kmph"
param *.node[*].scenario.ploegH 0.5s
param *.node[*].scenario.ploegKd 0.7
param *.node[*].scenario.ploegKp 0.2
param *.node[*].scenario.startOscillating "5 s"
param *.node[*].scenario.useRealisticEngine false
param *.node[*].scenario_type "\"SinusoidalScenario\""
param *.node[*].unicast.packetLossRate 0
param *.obstacles.debug false
param *.playgroundSizeX 65000m
param *.playgroundSizeY 25000m
param *.playgroundSizeZ 50m
param *.world.use2D false
param *.world.useTorus false

vector 0  scenario.node[0].appl  distance  ETV
vector 1  scenario.node[0].appl  relativeSpeed  ETV
vector 2  scenario.node[0].appl  nodeId  ETV
vector 6  scenario.node[0].appl  acceleration  ETV
vector 7  scenario.node[0].appl  controllerAcceleration  ETV
vector 3  scenario.node[0].appl  speed  ETV
vector 4  scenario.node[0].appl  posx  ETV
vector 5  scenario.node[0].appl  posy  ETV
vector 22  scenario.node[1].appl  distance  ETV
vector 23  scenario.node[1].appl  relativeSpeed  ETV
vector 24  scenario.node[1].appl  nodeId  ETV
vector 28  scenario.node[1].appl  acceleration  ETV
vector 29  scenario.node[1].appl  controllerAcceleration  ETV
vector 25  scenario.node[1].appl  speed  ETV
vector 26  scenario.node[1].appl  posx  ETV
vector 27  scenario.node[1].appl  posy  ETV
vector 44  scenario.node[2].appl  distance  ETV
vector 45  scenario.node[2].appl  relativeSpeed  ETV
vector 46  scenario.node[2].appl  nodeId  ETV
vector 50  scenario.node[2].appl  acceleration  ETV
vector 51  scenario.node[2].appl  controllerAcceleration  ETV
vector 47  scenario.node[2].appl  speed  ETV
vector 48  scenario.node[2].appl  posx  ETV
vector 49  scenario.node[2].appl  posy  ETV
vector 66  scenario.node[3].appl  distance  ETV
vector 67  scenario.node[3].appl  relativeSpeed  ETV
vector 68  scenario.node[3].appl  nodeId  ETV
vector 72  scenario.node[3].appl  acceleration  ETV
vector 73  scenario.node[3].appl  controllerAcceleration  ETV
vector 69  scenario.node[3].appl  speed  ETV
vector 70  scenario.node[3].appl  posx  ETV
vector 71  scenario.node[3].appl  posy  ETV
vector 88  scenario.node[4].appl  distance  ETV
vector 89  scenario.node[4].appl  relativeSpeed  ETV
vector 90  scenario.node[4].appl  nodeId  ETV
vector 94  scenario.node[4].appl  acceleration  ETV
vector 95  scenario.node[4].appl  controllerAcceleration  ETV
vector 91  scenario.node[4].appl  speed  ETV
vector 92  scenario.node[4].appl  posx  ETV
vector 93  scenario.node[4].appl  posy  ETV
vector 110  scenario.node[5].appl  distance  ETV
vector 111  scenario.node[5].appl  relativeSpeed  ETV
vector 112  scenario.node[5].appl  nodeId  ETV
vector 116  scenario.node[5].appl  acceleration  ETV
vector 117  scenario.node[5].appl  controllerAcceleration  ETV
vector 113  scenario.node[5].appl  speed  ETV
vector 114  scenario.node[5].appl  posx  ETV
vector 115  scenario.node[5].appl  posy  ETV
vector 132  scenario.node[6].appl  distance  ETV
vector 133  scenario.node[6].appl  relativeSpeed  ETV
vector 134  scenario.node[6].appl  nodeId  ETV
vector 138  scenario.node[6].appl  acceleration  ETV
vector 139  scenario.node[6].appl  controllerAcceleration  ETV
vector 135  scenario.node[6].appl  speed  ETV
vector 136  scenario.node[6].appl  posx  ETV
vector 137  scenario.node[6].appl  posy  ETV
vector 154  scenario.node[7].appl  distance  ETV
vector 155  scenario.node[7].appl  relativeSpeed  ETV
vector 156  scenario.node[7].appl  nodeId  ETV
vector 160  scenario.node[7].appl  acceleration  ETV
vector 161  scenario.node[7].appl  controllerAcceleration  ETV
vector 157  scenario.node[7].appl  speed  ETV
vector 158  scenario.node[7].appl  posx  ETV
vector 159  scenario.node[7].appl  posy  ETV
vector 35  scenario.node[1].prot  leaderDelay  ETV
vector 33  scenario.node[1].prot  leaderDelayId  ETV
vector 36  scenario.node[1].prot  frontDelay  ETV
vector 34  scenario.node[1].prot  frontDelayId  ETV
vector 57  scenario.node[2].prot  leaderDelay  ETV
vector 55  scenario.node[2].prot  leaderDelayId  ETV
vector 79  scenario.node[3].prot  leaderDelay  ETV
vector 77  scenario.node[3].prot  leaderDelayId  ETV
vector 101  scenario.node[4].prot  leaderDelay  ETV
vector 99  scenario.node[4].prot  leaderDelayId  ETV
vector 123  scenario.node[5].prot  leaderDelay  ETV
vector 121  scenario.node[5].prot  leaderDelayId  ETV
vector 145  scenario.node[6].prot  leaderDelay  ETV
vector 143  scenario.node[6].prot  leaderDelayId  ETV
vector 167  scenario.node[7].prot  leaderDelay  ETV
vector 165  scenario.node[7].prot  leaderDelayId  ETV
vector 168  scenario.node[7].prot  frontDelay  ETV
vector 166  scenario.node[7].prot  frontDelayId  ETV
vector 58  scenario.node[2].prot  frontDelay  ETV
vector 56  scenario.node[2].prot  frontDelayId  ETV
vector 124  scenario.node[5].prot  frontDelay  ETV
vector 122  scenario.node[5].prot  frontDelayId  ETV
vector 80  scenario.node[3].prot  frontDelay  ETV
vector 78  scenario.node[3].prot  frontDelayId  ETV
vector 146  scenario.node[6].prot  frontDelay  ETV
vector 144  scenario.node[6].prot  frontDelayId  ETV
vector 102  scenario.node[4].prot  frontDelay  ETV
vector 100  scenario.node[4].prot  frontDelayId  ETV
vector 8  scenario.node[0].prot  nodeId  ETV
vector 9  scenario.node[0].prot  busyTime  ETV
vector 10  scenario.node[0].prot  collisions  ETV
vector 30  scenario.node[1].prot  nodeId  ETV
vector 31  scenario.node[1].prot  busyTime  ETV
vector 32  scenario.node[1].prot  collisions  ETV
vector 52  scenario.node[2].prot  nodeId  ETV
vector 53  scenario.node[2].prot  busyTime  ETV
vector 54  scenario.node[2].prot  collisions  ETV
vector 74  scenario.node[3].prot  nodeId  ETV
vector 75  scenario.node[3].prot  busyTime  ETV
vector 76  scenario.node[3].prot  collisions  ETV
vector 96  scenario.node[4].prot  nodeId  ETV
vector 97  scenario.node[4].prot  busyTime  ETV
vector 98  scenario.node[4].prot  collisions  ETV
vector 118  scenario.node[5].prot  nodeId  ETV
vector 119  scenario.node[5].prot  busyTime  ETV
vector 120  scenario.node[5].prot  collisions  ETV
vector 140  scenario.node[6].prot  nodeId  ETV
vector 141  scenario.node[6].prot  busyTime  ETV
vector 142  scenario.node[6].prot  collisions  ETV
vector 162  scenario.node[7].prot  nodeId  ETV
vector 163  scenario.node[7].prot  busyTime  ETV
vector 164  scenario.node[7].prot  collisions  ETV
7	11253 10427 232 245069 1.11 45.01 440 -1.5 1.5 -13.178029469626 721.55473831668
6	21680 13865 232 245069 1.11 45.01 440 -1.4722746794938 1.4513433675031 -12.85712987122 490.03240346273
5	35545 8952 232 245069 1.11 45.01 440 36.55 36.55 16082 587797.1
4	44497 13315 232 245069 1.11 45.01 440 210.1237403867 1433.7586107008 362227.63402936 353261105.91383
3	57812 13304 232 245069 1.11 45.01 440 26.487967210471 29.742492528104 12263.678473951 342141.66054737
1	71116 7192 232 245069 1.11 45.01 440 0 0 0 0
0	78308 7632 232 245069 1.11 45.01 440 -1 -1 -440 440
2	85940 7192 232 245069 1.11 45.01 440 0 0 0 0
10	93132 633 5056 244880 2 45 44 0 0 0 0
9	93765 1154 5056 244880 2 45 44 0.022755747372 0.026262189362 1.151514415638 0.030147967089331
8	94919 589 5056 244880 2 45 44 0 0 0 0
51	95508 13425 234 245071 1.11 45.01 440 -1.5268714797433 1.5218527223985 15.106485701822 497.89105754108
50	108933 14416 234 245071 1.11 45.01 440 -1.4757144530289 1.4406976854907 16.524338169404 341.89833773295
49	123349 9392 234 245071 1.11 45.01 440 36.55 36.55 16082 587797.1
48	132741 13745 234 245071 1.11 45.01 440 162.12374038696 1414.72835324 342900.16132642 324147853.98065
47	146486 13735 234 245071 1.11 45.01 440 26.486567370713 30.709278786746 12554.403590989 358929.99160316
45	160221 15126 234 245071 1.11 45.01 440 -0.93488022306676 0.013218816456234 -91.967548283656 74.7182224729
44	175347 13729 234 245071 1.11 45.01 440 10.852838191259 20.063951994143 8316.0159244573 159647.71203917
46	189076 7632 234 245071 1.11 45.01 440 2 2 880 1760
58	196708 17589 1046 245327 1.299191202215 45.099195761794 439 0.099987083066 0.100012657781 43.900004641019 4.390000928863
57	214297 17586 842 245123 1.269559241551 45.069564013738 439 0.099987080748 0.100012722053 43.900004853627 4.3900009713873
56	231883 11968 1046 245327 1.299191202215 45.099195761794 439 2 2 878 1756
55	243851 11963 842 245123 1.269559241551 45.069564013738 439 2 2 878 1756
54	255814 633 5058 244882 2 45 44 0 0 0 0
53	256447 1195 5058 244882 2 45 44 0.022755907483 0.026262189765 1.151514479312 0.030147969313099
52	257642 633 5058 244882 2 45 44 2 2 88 176
73	258275 14316 235 245072 1.11 45.01 440 -1.4873962137024 1.4906490651251 23.01591173913 475.43378653558
72	272591 14360 235 245072 1.11 45.01 440 -1.462903729573 1.4321825641002 24.142579533304 342.45602167937
71	286951 9392 235 245072 1.11 45.01 440 36.55 36.55 16082 587797.1
70	296343 13745 235 245072 1.11 45.01 440 138.12373275757 1398.010170575 332696.00567909 308859991.05576
69	310088 13725 235 245072 1.11 45.01 440 26.497257204844 31.31311253251 12627.488711018 363389.51707907
67	323813 14916 235 245072 1.11 45.01 440 -0.82561439884085 0.029305426055323 -73.250363411241 50.838876037305
66	338729 13754 235 245072 1.11 45.01 440 12.733460271518 20.063152462656 8445.6173497271 163466.40332706
68	352483 7632 235 245072 1.11 45.01 440 3 3 1320 3960
80	360115 17553 1180 244905 1.300212602492 45.000204576505 438 0.099987080261 0.100012633951 43.799992055453 4.3799984115937
79	377668 17588 848 245129 1.269559321606 45.069564069376 439 0.099987080752 0.100012721786 43.90000482921 4.3900009665039
78	395256 11946 1180 244905 1.300212602492 45.000204576505 438 3 3 1314 3942
77	407202 11961 848 245129 1.269559321606 45.069564069376 439 3 3 1317 3951
76	419163 633 5059 244883 2 45 44 0 0 0 0
75	419796 1195 5059 244883 2 45 44 0.022754827428 0.026262189643 1.151513423495 0.030147921431537
74	420991 633 5059 244883 2 45 44 3 3 132 396
95	421624 14282 236 245073 1.11 45.01 440 -1.4832319681992 1.4845602020661 30.103572625621 471.44877527541
94	435906 14356 236 245073 1.11 45.01 440 -1.4535830310592 1.42521091894 31.369088440832 341.80678674112
93	450262 9392 236 245073 1.11 45.01 440 36.55 36.55 16082 587797.1
92	459654 13741 236 245073 1.11 45.01 440 114.12373275757 1379.6152904597 322384.46314893 293779284.03576
91	473395 13753 236 245073 1.11 45.01 440 26.507337862403 31.806367546404 12683.793011196 366893.88480428
89	487148 15128 236 245073 1.11 45.01 440 -0.72518590191564 0.010595947067131 -56.545725973601 32.48740228749
88	502276 13717 236 245073 1.11 45.01 440 14.409348347223 20.029757230516 8552.6686161606 166966.87028428
90	515993 7632 236 245073 1.11 45.01 440 4 4 1760 7040
102	523625 17988 1312 245037 1.306018002769 45.006087892765 438 0.099908691713 0.10009108144 43.800004971436 4.3800018152407
101	541613 18037 854 245135 1.269559401662 45.069564130614 439 0.099987080753 0.10001272157 43.900004810392 4.3900009627403
100	559650 12381 1312 245037 1.306018002769 45.006087892765 438 4 4 1752 7008
99	572031 11968 854 245135 1.269559401662 45.069564130614 439 4 4 1756 7024
98	583999 633 5060 244884 2 45 44 0 0 0 0
97	584632 1194 5060 244884 2 45 44 0.022755747372 0.026262189601 1.151514362088 0.030147964277824
96	585826 633 5060 244884 2 45 44 4 4 176 704
117	586459 14739 237 245074 1.11 45.01 440 -1.5013449387191 1.5026796583025 37.244378228725 493.3521280269
116	601198 14794 237 245074 1.11 45.01 440 -1.4475786628008 1.4211527163312 37.789411500494 341.46853086943
115	615992 9832 237 245074 1.11 45.01 440 36.55 36.55 16082 587797.1
114	625824 14189 237 245074 1.11 45.01 440 90.123736572266 1359.8255100564 311997.38754503 278994585.01965
113	640013 14183 237 245074 1.11 45.01 440 26.512921989852 32.205178534006 12726.119550281 369571.59972286
111	654196 15385 237 245074 1.11 45.01 440 -0.63880162097869 0.017660650194262 -42.640229969293 19.779233906546
110	669581 14187 237 245074 1.11 45.01 440 15.802599881861 20.014445358085 8627.9221346871 169554.26844871
112	683768 8072 237 245074 1.11 45.01 440 5 5 2200 11000
124	691840 18014 1112 245393 1.299591442381 45.099595944363 439 0.099987080523 0.100012857408 43.900004583422 4.3900009173516
123	709854 18017 860 245141 1.269559481717 45.069564196519 439 0.099987080751 0.100012721407 43.900004796242 4.3900009599102
122	727871 12400 1112 245393 1.299591442381 45.099595944363 439 5 5 2195 10975
121	740271 12392 860 245141 1.269559481717 45.069564196519 439 5 5 2195 10975
120	752663 677 5061 244885 2 45 44 0 0 0 0
119	753340 1237 5061 244885 2 45 44 0.022754667317 0.026262189611 1.151513296034 0.030147915859155
118	754577 677 5061 244885 2 45 44 5 5 220 1100
139	755254 14726 238 245075 1.11 45.01 440 -1.4835635201916 1.4845553064095 41.870249937764 478.73403298114
138	769980 14779 238 245075 1.11 45.01 440 -1.4515357144926 1.427573253622 43.089147694313 347.25899588918
137	784759 9832 238 245075 1.11 45.01 440 36.55 36.55 16082 587797.1
136	794591 14179 238 245075 1.11 45.01 440 66.123736572266 1338.9422836965 301562.97848929 264582629.61778
135	808770 14177 238 245075 1.11 45.01 440 26.502683061856 32.521664897819 12757.472968848 371581.81275729
133	822947 15341 238 245075 1.11 45.01 440 -0.52765040273533 0.045486158174484 -31.731312681313 11.329744666168
132	838288 14165 238 245075 1.11 45.01 440 16.893819795521 20.031055657003 8675.0361241083 171229.10477722
134	852453 8072 238 245075 1.11 45.01 440 6 6 2640 15840
146	860525 17988 1249 244974 1.305604842658 45.005609773643 438 0.099987081777 0.100012878388 43.800005012425 4.3800010031526
145	878513 18022 866 245147 1.269559561772 45.069564266089 439 0.099987080748 0.100012721289 43.900004785757 4.3900009578133
144	896535 12387 1249 244974 1.305604842658 45.005609773643 438 6 6 2628 15768
143	908922 12393 866 245147 1.269559561772 45.069564266089 439 6 6 2634 15804
142	921315 677 5062 244886 2 45 44 0 0 0 0
141	921992 1242 5062 244886 2 45 44 0.022755587261 0.026262189691 1.15151422634 0.03014795827007
140	923234 677 5062 244886 2 45 44 6 6 264 1584
161	923911 14624 239 245076 1.11 45.01 440 -1.5023459447897 1.5011641343819 47.451711146562 500.20666240286
160	938535 14797 239 245076 1.11 45.01 440 -1.4499547005617 1.4252036246116 47.517391598754 346.9297941453
159	953332 9832 239 245076 1.11 45.01 440 36.55 36.55 16082 587797.1
158	963164 14180 239 245076 1.11 45.01 440 42.123735618591 1317.1799591718 291081.12066385 250553448.56027
157	977344 14191 239 245076 1.11 45.01 440 26.507414806327 32.793136328195 12780.004075793 373043.20189978
155	991535 15706 239 245076 1.11 45.01 440 -0.43870161767678 0.0037105005977089 -22.961998422426 6.6089405844389
154	1007241 14187 239 245076 1.11 45.01 440 17.771132867849 20.018772038188 8722.3084475822 172994.88483177
156	1021428 8072 239 245076 1.11 45.01 440 7 7 3080 21560
168	1029500 18039 980 245261 1.292108801938 45.092100483583 439 0.099987037789 0.100012960666 43.899991763085 4.3899983534555
167	1047539 18037 872 245153 1.269559641828 45.069564338607 439 0.09998708075 0.100012721201 43.900004778219 4.3900009563056
166	1065576 12413 980 245261 1.292108801938 45.092100483583 439 7 7 3073 21511
165	1077989 12415 872 245153 1.269559641828 45.069564338607 439 7 7 3073 21511
164	1090404 677 5063 244887 2 45 44 0 0 0 0
163	1091081 1239 5063 244887 2 45 44 0.022755507206 0.026262189656 1.151514153719 0.030147955016981
162	1092320 677 5063 244887 2 45 44 7 7 308 2156
22	1092997 13763 233 245446 1.11 45.1 441 0 20.519816481084 7497.2712808282 143136.64344104
23	1106760 14827 233 245446 1.11 45.1 441 -3.4575324387856 0.38539520787725 -200.92377520433 473.90065729741
24	1121587 7649 233 245446 1.11 45.1 441 1 1 441 441
25	1129236 13774 233 245446 1.11 45.1 441 26.48258984786 29.988304559494 12491.220390304 354274.95626643
26	1143010 13776 233 245446 1.11 45.1 441 186.12374038696 1432.1490960945 354406.48883242 341610508.40935
27	1156786 9413 233 245446 1.11 45.1 441 36.55 36.55 16118.55 589133.0025
28	1166199 14430 233 245446 1.11 45.1 441 -1.4845166976844 1.4492363479558 9.0741869667891 337.30974139596
29	1180629 13642 233 245446 1.11 45.1 441 -1.5201885305329 1.5215379202346 8.2819188630394 489.44767745912
30	1194271 633 5057 244881 2 45 44 1 1 44 44
31	1194904 1194 5057 244881 2 45 44 0.022755827428 0.026262189695 1.151514429768 0.030147967271531
32	1196098 633 5057 244881 2 45 44 0 0 0 0
33	1196731 11966 836 245117 1.269559161495 45.069563964365 439 1 1 439 439
34	1208697 11966 836 245117 1.269559161495 45.069563964365 439 1 1 439 439
35	1220663 17599 836 245117 1.269559161495 45.069563964365 439 0.099987080745 0.100012722363 43.90000488431 4.3900009775239
36	1238262 17599 836 245117 1.269559161495 45.069563964365 439 0.099987080745 0.100012722363 43.90000488431 4.3900009775239
