file 1683712 1501676883                                         
version 2
run SinusoidalJammingDetail-715-20170802-14:27:33-70111
attr CACCSpacing 20
attr attackAcc -30
attr attackPos 7
attr attackSpeed 150
attr attackStart 32.5
attr attacker 1
attr beaconInterval 0.1
attr configname SinusoidalJammingDetail
attr controller 1
attr datetime 20170802-14:27:33
attr experiment SinusoidalJammingDetail
attr fakeAcc "(1 == 4)"
attr fakePos "(1 == 2)"
attr fakeSpeed "(1 == 3)"
attr inifile omnetpp_715.ini
attr iterationvars "$leaderSpeed=120, $controller=1, $CACCSpacing=20, $sController=\"CACC\", $attacker=1, $attackStart=32.5, $attackSpeed=150, $attackPos=7, $attackAcc=-30, $0=20, $1=0, $nCars=8, $platoonSize=8, $nLanes=1, $beaconInterval=0.1, $priority=2, $packetSize=200, $ploegH=0.5, $leaderHeadway=1.2, $fakeSpeed=(1 == 3), $fakeAcc=(1 == 4), $fakePos=(1 == 2)"
attr iterationvarsf leaderSpeed=120,controller=1,CACCSpacing=20,sController=CACC,attacker=1,attackStart=32.5,attackSpeed=150,attackPos=7,attackAcc=-30,20,0,nCars=8,platoonSize=8,nLanes=1,beaconInterval=0.1,priority=2,packetSize=200,ploegH=0.5,leaderHeadway=1.2,fakeSpeed=(1_==_3),fakeAcc=(1_==_4),fakePos=(1_==_2)-
attr leaderHeadway 1.2
attr leaderSpeed 120
attr measurement "$leaderSpeed=120, $controller=1, $CACCSpacing=20, $sController=\"CACC\", $attacker=1, $attackStart=32.5, $attackSpeed=150, $attackPos=7, $attackAcc=-30, $0=20, $1=0, $nCars=8, $platoonSize=8, $nLanes=1, $beaconInterval=0.1, $priority=2, $packetSize=200, $ploegH=0.5, $leaderHeadway=1.2, $fakeSpeed=(1 == 3), $fakeAcc=(1 == 4), $fakePos=(1 == 2)"
attr nCars 8
attr nLanes 1
attr network scenario
attr packetSize 200
attr platoonSize 8
attr ploegH 0.5
attr priority 2
attr processid 70111
attr repetition 0
attr replication #0
attr resultdir results
attr runnumber 715
attr sController "\"CACC\""
attr seedset 0
param **.coreDebug false
param **.debug false
param **.headway 0.1s
param **.numberOfCars 8
param **.numberOfCarsPerPlatoon 8
param **.numberOfLanes 1
param **.numericController 1
param **.traffic.nCars 8
param **.traffic.nLanes 1
param **.traffic.platoonInsertDistance 20m
param **.traffic.platoonInsertHeadway 0s
param **.traffic.platoonInsertSpeed 120kmph
param **.traffic.platoonInsertTime "1 s"
param **.traffic.platoonLeaderHeadway 1.2s
param **.traffic.platoonSize 8
param **.traffic.platooningVType "\"vtypeauto\""
param **.traffic_type "\"PlatoonsTrafficManager\""
param *.**.nic.mac1609_4.bitrate 6Mbps
param *.**.nic.mac1609_4.txPower 100mW
param *.**.nic.mac1609_4.useServiceChannel false
param *.**.nic.phy80211p.analogueModels "xmldoc(\"config.xml\")"
param *.**.nic.phy80211p.decider "xmldoc(\"config.xml\")"
param *.**.nic.phy80211p.maxTXPower 100mW
param *.**.nic.phy80211p.sensitivity -94dBm
param *.**.nic.phy80211p.thermalNoise -95dBm
param *.**.nic.phy80211p.usePropagationDelay true
param *.**.nic.phy80211p.useThermalNoise true
param *.annotations.draw false
param *.connectionManager.alpha 2.0
param *.connectionManager.carrierFrequency "5.890e9 Hz"
param *.connectionManager.pMax 100mW
param *.connectionManager.sat -94dBm
param *.connectionManager.sendDirect true
param *.manager.autoShutdown true
param *.manager.commandLine "\"sumo --remote-port $port --seed $seed --configuration-file $configFile\""
param *.manager.configFile "\"./sumocfg/freeway.sumo.cfg\""
param *.manager.host "\"localhost\""
param *.manager.margin 25
param *.manager.moduleDisplayString "\"\""
param *.manager.moduleName "\"node\""
param *.manager.moduleType "\"Car\""
param *.manager.updateInterval 0.01s
param *.node[*].appl.attackStart 32.5s
param *.node[*].appl.attackerType 1
param *.node[*].appl.simulationDuration "60 s"
param *.node[*].appl_type "\"SimplePlatooningApp\""
param *.node[*].helper.nCars 8
param *.node[*].helper.nLanes 1
param *.node[*].helper.platoonSize 8
param *.node[*].helper_type "\"PositionHelper\""
param *.node[*].mobility.x 0
param *.node[*].mobility.y 0
param *.node[*].mobility.z 1.895
param *.node[*].prot.attackStart 32.5s
param *.node[*].prot.attackerType 1
param *.node[*].prot.attackingNode 3
param *.node[*].prot.beaconingInterval 0.1s
param *.node[*].prot.fakeAcc "(1 == 4)"
param *.node[*].prot.fakePos "(1 == 2)"
param *.node[*].prot.fakeSpeed "(1 == 3)"
param *.node[*].prot.maliciousAcc "-30 mpss"
param *.node[*].prot.maliciousSpeed 150kmph
param *.node[*].prot.packetSize 200
param *.node[*].prot.priority 2
param *.node[*].prot.shiftX "7 m"
param *.node[*].prot.useControllerAcceleration true
param *.node[*].protocol_type "\"SimplePlatooningBeaconing\""
param *.node[*].scenario.accHeadway 0.1s
param *.node[*].scenario.caccC1 0.5
param *.node[*].scenario.caccOmegaN "0.2 Hz"
param *.node[*].scenario.caccSpacing 20m
param *.node[*].scenario.caccXi 1
param *.node[*].scenario.controller "\"CACC\""
param *.node[*].scenario.engineTau "0.5 s"
param *.node[*].scenario.leaderHeadway 1.2s
param *.node[*].scenario.leaderOscillationFrequency "0.2 Hz"
param *.node[*].scenario.leaderSpeed 120kmph
param *.node[*].scenario.oscillationAmplitude "10 kmph"
param *.node[*].scenario.ploegH 0.5s
param *.node[*].scenario.ploegKd 0.7
param *.node[*].scenario.ploegKp 0.2
param *.node[*].scenario.startOscillating "5 s"
param *.node[*].scenario.useRealisticEngine false
param *.node[*].scenario_type "\"SinusoidalScenario\""
param *.node[*].unicast.packetLossRate 0
param *.obstacles.debug false
param *.playgroundSizeX 65000m
param *.playgroundSizeY 25000m
param *.playgroundSizeZ 50m
param *.world.use2D false
param *.world.useTorus false

vector 0  scenario.node[0].appl  distance  ETV
vector 1  scenario.node[0].appl  relativeSpeed  ETV
vector 2  scenario.node[0].appl  nodeId  ETV
vector 6  scenario.node[0].appl  acceleration  ETV
vector 7  scenario.node[0].appl  controllerAcceleration  ETV
vector 3  scenario.node[0].appl  speed  ETV
vector 4  scenario.node[0].appl  posx  ETV
vector 5  scenario.node[0].appl  posy  ETV
vector 22  scenario.node[1].appl  distance  ETV
vector 23  scenario.node[1].appl  relativeSpeed  ETV
vector 24  scenario.node[1].appl  nodeId  ETV
vector 28  scenario.node[1].appl  acceleration  ETV
vector 29  scenario.node[1].appl  controllerAcceleration  ETV
vector 25  scenario.node[1].appl  speed  ETV
vector 26  scenario.node[1].appl  posx  ETV
vector 27  scenario.node[1].appl  posy  ETV
vector 44  scenario.node[2].appl  distance  ETV
vector 45  scenario.node[2].appl  relativeSpeed  ETV
vector 46  scenario.node[2].appl  nodeId  ETV
vector 50  scenario.node[2].appl  acceleration  ETV
vector 51  scenario.node[2].appl  controllerAcceleration  ETV
vector 47  scenario.node[2].appl  speed  ETV
vector 48  scenario.node[2].appl  posx  ETV
vector 49  scenario.node[2].appl  posy  ETV
vector 66  scenario.node[3].appl  distance  ETV
vector 67  scenario.node[3].appl  relativeSpeed  ETV
vector 68  scenario.node[3].appl  nodeId  ETV
vector 72  scenario.node[3].appl  acceleration  ETV
vector 73  scenario.node[3].appl  controllerAcceleration  ETV
vector 69  scenario.node[3].appl  speed  ETV
vector 70  scenario.node[3].appl  posx  ETV
vector 71  scenario.node[3].appl  posy  ETV
vector 88  scenario.node[4].appl  distance  ETV
vector 89  scenario.node[4].appl  relativeSpeed  ETV
vector 90  scenario.node[4].appl  nodeId  ETV
vector 94  scenario.node[4].appl  acceleration  ETV
vector 95  scenario.node[4].appl  controllerAcceleration  ETV
vector 91  scenario.node[4].appl  speed  ETV
vector 92  scenario.node[4].appl  posx  ETV
vector 93  scenario.node[4].appl  posy  ETV
vector 110  scenario.node[5].appl  distance  ETV
vector 111  scenario.node[5].appl  relativeSpeed  ETV
vector 112  scenario.node[5].appl  nodeId  ETV
vector 116  scenario.node[5].appl  acceleration  ETV
vector 117  scenario.node[5].appl  controllerAcceleration  ETV
vector 113  scenario.node[5].appl  speed  ETV
vector 114  scenario.node[5].appl  posx  ETV
vector 115  scenario.node[5].appl  posy  ETV
vector 132  scenario.node[6].appl  distance  ETV
vector 133  scenario.node[6].appl  relativeSpeed  ETV
vector 134  scenario.node[6].appl  nodeId  ETV
vector 138  scenario.node[6].appl  acceleration  ETV
vector 139  scenario.node[6].appl  controllerAcceleration  ETV
vector 135  scenario.node[6].appl  speed  ETV
vector 136  scenario.node[6].appl  posx  ETV
vector 137  scenario.node[6].appl  posy  ETV
vector 154  scenario.node[7].appl  distance  ETV
vector 155  scenario.node[7].appl  relativeSpeed  ETV
vector 156  scenario.node[7].appl  nodeId  ETV
vector 160  scenario.node[7].appl  acceleration  ETV
vector 161  scenario.node[7].appl  controllerAcceleration  ETV
vector 157  scenario.node[7].appl  speed  ETV
vector 158  scenario.node[7].appl  posx  ETV
vector 159  scenario.node[7].appl  posy  ETV
vector 80  scenario.node[3].prot  frontDelay  ETV
vector 78  scenario.node[3].prot  frontDelayId  ETV
vector 58  scenario.node[2].prot  frontDelay  ETV
vector 56  scenario.node[2].prot  frontDelayId  ETV
vector 168  scenario.node[7].prot  frontDelay  ETV
vector 166  scenario.node[7].prot  frontDelayId  ETV
vector 35  scenario.node[1].prot  leaderDelay  ETV
vector 33  scenario.node[1].prot  leaderDelayId  ETV
vector 36  scenario.node[1].prot  frontDelay  ETV
vector 34  scenario.node[1].prot  frontDelayId  ETV
vector 57  scenario.node[2].prot  leaderDelay  ETV
vector 55  scenario.node[2].prot  leaderDelayId  ETV
vector 79  scenario.node[3].prot  leaderDelay  ETV
vector 77  scenario.node[3].prot  leaderDelayId  ETV
vector 101  scenario.node[4].prot  leaderDelay  ETV
vector 99  scenario.node[4].prot  leaderDelayId  ETV
vector 123  scenario.node[5].prot  leaderDelay  ETV
vector 121  scenario.node[5].prot  leaderDelayId  ETV
vector 145  scenario.node[6].prot  leaderDelay  ETV
vector 143  scenario.node[6].prot  leaderDelayId  ETV
vector 167  scenario.node[7].prot  leaderDelay  ETV
vector 165  scenario.node[7].prot  leaderDelayId  ETV
vector 124  scenario.node[5].prot  frontDelay  ETV
vector 122  scenario.node[5].prot  frontDelayId  ETV
vector 102  scenario.node[4].prot  frontDelay  ETV
vector 100  scenario.node[4].prot  frontDelayId  ETV
vector 146  scenario.node[6].prot  frontDelay  ETV
vector 144  scenario.node[6].prot  frontDelayId  ETV
vector 8  scenario.node[0].prot  nodeId  ETV
vector 9  scenario.node[0].prot  busyTime  ETV
vector 10  scenario.node[0].prot  collisions  ETV
vector 30  scenario.node[1].prot  nodeId  ETV
vector 31  scenario.node[1].prot  busyTime  ETV
vector 32  scenario.node[1].prot  collisions  ETV
vector 52  scenario.node[2].prot  nodeId  ETV
vector 53  scenario.node[2].prot  busyTime  ETV
vector 54  scenario.node[2].prot  collisions  ETV
vector 74  scenario.node[3].prot  nodeId  ETV
vector 75  scenario.node[3].prot  busyTime  ETV
vector 76  scenario.node[3].prot  collisions  ETV
vector 96  scenario.node[4].prot  nodeId  ETV
vector 97  scenario.node[4].prot  busyTime  ETV
vector 98  scenario.node[4].prot  collisions  ETV
vector 118  scenario.node[5].prot  nodeId  ETV
vector 119  scenario.node[5].prot  busyTime  ETV
vector 120  scenario.node[5].prot  collisions  ETV
vector 140  scenario.node[6].prot  nodeId  ETV
vector 141  scenario.node[6].prot  busyTime  ETV
vector 142  scenario.node[6].prot  collisions  ETV
vector 162  scenario.node[7].prot  nodeId  ETV
vector 163  scenario.node[7].prot  busyTime  ETV
vector 164  scenario.node[7].prot  collisions  ETV
7	11253 13859 232 328174 1.11 59.91 589 -1.5 1.5 -14.445953361693 993.24092335941
6	25112 18579 232 328174 1.11 59.91 589 -1.4722746795918 1.4513434175775 -12.507247963452 675.29835166926
5	43691 12081 232 328174 1.11 59.91 589 36.55 36.55 21527.95 786846.5725
4	55772 17904 232 328174 1.11 59.91 589 204.77319831888 2169.0893286388 699922.28273047 1021414871.8529
3	73676 17913 232 328174 1.11 59.91 589 32.043521415285 35.298048086563 19676.061011579 657739.0394163
1	91589 9725 232 328174 1.11 59.91 589 0 0 0 0
0	101314 10314 232 328174 1.11 59.91 589 -1 -1 -589 589
2	111628 9725 232 328174 1.11 59.91 589 0 0 0 0
10	121353 858 5102 328596 2 60 59 0 0 0 0
9	122211 1154 5102 328596 2 60 59 0.022969 0.02625 1.545469 0.040493199961
8	123365 799 5102 328596 2 60 59 0 0 0 0
29	124164 18756 233 328175 1.11 59.91 589 -1.5112642280618 1.5120701292979 -0.29483181259924 508.01524873979
28	142920 19477 233 328175 1.11 59.91 589 -1.4820302872479 1.4492283737809 -0.43623174205862 347.68276703914
27	162397 12670 233 328175 1.11 59.91 589 36.55 36.55 21527.95 786846.5725
26	175067 18497 233 328175 1.11 59.91 589 180.77319831848 2135.2465879769 684343.72562735 982774865.49907
25	193564 18500 233 328175 1.11 59.91 589 32.040515395794 35.296982494638 19578.052381745 651083.40218615
23	212064 19642 233 328175 1.11 59.91 589 -1.2672306273748 2.1624122633574 98.133702313499 292.53235448992
22	231706 18500 233 328175 1.11 59.91 589 17.870768156778 30.439479561508 13220.596930523 304903.38244896
24	250206 10314 233 328175 1.11 59.91 589 1 1 589 589
36	260520 23680 1032 328418 1.254913282269 59.954917704418 588 0.099909230199 0.100091786135 58.800017663699 5.8800045685007
35	284200 23680 1032 328418 1.254913282269 59.954917704418 588 0.099909230199 0.100091786135 58.800017663699 5.8800045685007
34	307880 16125 1032 328418 1.254913282269 59.954917704418 588 1 1 588 588
33	324005 16125 1032 328418 1.254913282269 59.954917704418 588 1 1 588 588
32	340130 858 5103 328597 2 60 59 0 0 0 0
31	340988 1213 5103 328597 2 60 59 0.022969 0.02625 1.545469 0.040493199961
30	342201 858 5103 328597 2 60 59 1 1 59 59
51	343059 19401 234 328176 1.11 59.91 589 -1.4951715950905 1.4969403277791 -1.2926080639601 499.94950883667
50	362460 19444 234 328176 1.11 59.91 589 -1.4749478773638 1.4483793278167 -1.5291541398373 348.65070129491
49	381904 12670 234 328176 1.11 59.91 589 36.55 36.55 21527.95 786846.5725
48	394574 18496 234 328176 1.11 59.91 589 156.77319831848 2103.8737479131 669176.61389848 946471454.91595
47	413070 18484 234 328176 1.11 59.91 589 31.997787108559 35.293979140941 19504.285051567 646270.23088722
45	431554 19694 234 328176 1.11 59.91 589 -0.042015734767411 0.48018602459856 73.771692495725 26.543800995169
44	451248 18469 234 328176 1.11 59.91 589 19.926036240446 27.370604052678 12809.636382267 282598.72012475
46	469717 10314 234 328176 1.11 59.91 589 2 2 1178 2356
58	480031 23614 900 328280 1.22965940166 59.929663571796 588 0.099987230507 0.100000840353 58.800004411686 5.8800008849513
57	503645 23678 1038 328424 1.254913362325 59.954917809081 588 0.099909230228 0.100091786176 58.800017688306 5.8800045734221
56	527323 16080 900 328280 1.22965940166 59.929663571796 588 2 2 1176 2352
55	543403 16121 1038 328424 1.254913362325 59.954917809081 588 2 2 1176 2352
54	559524 858 5104 328598 2 60 59 0 0 0 0
53	560382 1213 5104 328598 2 60 59 0.022969 0.02625 1.545469 0.040493199961
52	561595 858 5104 328598 2 60 59 2 2 118 236
73	562453 19375 235 328177 1.11 59.91 589 -1.4890347539023 1.4892302568005 -2.7357507867265 488.90874489204
72	581828 19421 235 328177 1.11 59.91 589 -1.4633940740261 1.4358250200651 -2.9730404593806 344.81071406991
71	601249 12670 235 328177 1.11 59.91 589 36.55 36.55 21527.95 786846.5725
70	613919 18490 235 328177 1.11 59.91 589 132.77319831848 2072.9383634632 654166.4002146 911497880.42663
69	632409 18492 235 328177 1.11 59.91 589 31.655548872513 35.283814991365 19434.880634932 641775.00287244
67	650901 19798 235 328177 1.11 59.91 589 -0.022576858870288 0.42493569744279 69.419708176366 22.229793719672
66	670699 18471 235 328177 1.11 59.91 589 19.96570909697 26.932488515833 12652.82559554 274939.88493433
68	689170 10314 235 328177 1.11 59.91 589 3 3 1767 5301
80	699484 23680 832 328212 1.213906321605 59.913897465684 588 0.099987236594 0.100000840326 58.799991385629 5.8799982798905
79	723164 23645 1044 328430 1.25491344238 59.95491791229 588 0.099909230242 0.100091786236 58.80001771146 5.8800045780529
78	746809 16126 832 328212 1.213906321605 59.913897465684 588 3 3 1764 5292
77	762935 16092 1044 328430 1.25491344238 59.95491791229 588 3 3 1764 5292
76	779027 858 5105 328599 2 60 59 0 0 0 0
75	779885 1213 5105 328599 2 60 59 0.022968 0.02625 1.545468 0.040493154024
74	781098 858 5105 328599 2 60 59 3 3 177 531
95	781956 19352 236 328178 1.11 59.91 589 -1.482146826564 1.4819889262992 -4.4729758935077 479.33821922009
94	801308 19401 236 328178 1.11 59.91 589 -1.4529610416716 1.4260514163297 -4.7812461466076 341.31249410624
93	820709 12670 236 328178 1.11 59.91 589 36.55 36.55 21527.95 786846.5725
92	833379 18497 236 328178 1.11 59.91 589 108.77319831848 2042.5357352188 639302.46189942 877798224.67857
91	851876 18493 236 328178 1.11 59.91 589 31.380203348805 35.271793292196 19370.790965851 637653.95029577
89	870369 19881 236 328178 1.11 59.91 589 -0.013924732676713 0.37107075383609 64.119399485907 18.957685629195
88	890250 18475 236 328178 1.11 59.91 589 19.984402047124 26.398999855522 12506.656521801 267940.31924528
90	908725 10314 236 328178 1.11 59.91 589 4 4 2356 9424
102	919039 24259 1246 328635 1.303564162878 60.00355580002 588 0.099987240765 0.100000840863 58.799991878692 5.8799983785055
101	943298 24255 1050 328436 1.254913522436 59.954918013726 588 0.09990923025 0.100091786311 58.80001773284 5.8800045823289
100	967553 16718 1246 328635 1.303564162878 60.00355580002 588 4 4 2352 9408
99	984271 16116 1050 328436 1.254913522436 59.954918013726 588 4 4 2352 9408
98	1000387 858 5106 328600 2 60 59 0 0 0 0
97	1001245 1213 5106 328600 2 60 59 0.022969 0.02625 1.545469 0.040493199961
96	1002458 858 5106 328600 2 60 59 4 4 236 944
117	1003316 19950 237 328179 1.11 59.91 589 -1.489729022616 1.491443126562 -6.5998091528595 493.96069021394
116	1023266 19979 237 328179 1.11 59.91 589 -1.4478111582385 1.4230961256622 -6.9256106646183 340.07878471295
115	1043245 13259 237 328179 1.11 59.91 589 36.55 36.55 21527.95 786846.5725
114	1056504 19086 237 328179 1.11 59.91 589 84.773198318481 2012.7422030886 624566.79094156 845295174.25722
113	1075590 19072 237 328179 1.11 59.91 589 31.161632536749 35.263935158811 19312.780564548 633949.73173653
111	1094662 20335 237 328179 1.11 59.91 589 -0.038427830739714 0.33341170403394 58.058213764028 16.098731199126
110	1114997 19065 237 328179 1.11 59.91 589 19.973728993779 25.789235909901 12378.510749837 261894.71057276
112	1134062 10903 237 328179 1.11 59.91 589 5 5 2945 14725
124	1144965 24249 1172 328552 1.265750082823 59.965754696528 588 0.099987240401 0.100000840814 58.800004855255 5.8800009736621
123	1169214 24241 1056 328442 1.254913602491 59.954918113135 588 0.099909230257 0.100091786396 58.800017752194 5.8800045861997
122	1193455 16708 1172 328552 1.265750082823 59.965754696528 588 5 5 2940 14700
121	1210163 16707 1056 328442 1.254913602491 59.954918113135 588 5 5 2940 14700
120	1226870 917 5107 328601 2 60 59 0 0 0 0
119	1227787 1272 5107 328601 2 60 59 0.022968 0.02625 1.545468 0.040493154024
118	1229059 917 5107 328601 2 60 59 5 5 295 1475
139	1229976 19935 238 328180 1.11 59.91 589 -1.4807666974895 1.4811502087899 -8.8397268519516 484.09229065021
138	1249911 19978 238 328180 1.11 59.91 589 -1.4505591632904 1.4266257335301 -9.317897117052 344.08976248421
137	1269889 13259 238 328180 1.11 59.91 589 36.55 36.55 21527.95 786846.5725
136	1283148 19079 238 328180 1.11 59.91 589 60.773198318481 1983.6007895467 609945.48262471 813924955.21235
135	1302227 19081 238 328180 1.11 59.91 589 30.983253773159 35.269195259781 19261.282489167 630686.37150515
133	1321308 20405 238 328180 1.11 59.91 589 -0.019950013647431 0.30629633105662 51.567331487924 13.205793525994
132	1341713 19065 238 328180 1.11 59.91 589 19.990258553153 25.136610720907 12264.278355342 256613.20115674
134	1360778 10903 238 328180 1.11 59.91 589 6 6 3534 21204
146	1371681 24252 1312 328701 1.305160322989 60.005164996742 588 0.099987234203 0.100000841014 58.800004915303 5.8800009856736
145	1395933 24252 1062 328448 1.254913682546 59.954918210372 588 0.099909230262 0.100091786487 58.800017769376 5.8800045896361
144	1420185 16709 1312 328701 1.305160322989 60.005164996742 588 6 6 3528 21168
143	1436894 16705 1062 328448 1.254913682546 59.954918210372 588 6 6 3528 21168
142	1453599 917 5108 328602 2 60 59 0 0 0 0
141	1454516 1272 5108 328602 2 60 59 0.022969 0.02625 1.545469 0.040493199961
140	1455788 917 5108 328602 2 60 59 6 6 354 2124
161	1456705 19965 239 328181 1.11 59.91 589 -1.4935373308006 1.4938221933888 -11.367282138767 500.68794389328
160	1476670 19993 239 328181 1.11 59.91 589 -1.4563373094752 1.4303481439562 -11.869263680666 346.32212282511
159	1496663 13259 239 328181 1.11 59.91 589 36.55 36.55 21527.95 786846.5725
158	1509922 19081 239 328181 1.11 59.91 589 36.773196411133 1955.1168290489 595421.86812347 783618419.85533
157	1529003 19083 239 328181 1.11 59.91 589 30.834467453267 35.273800792516 19216.353664951 627857.2500276
155	1548086 20657 239 328181 1.11 59.91 589 -0.0092142803466899 0.28472743363718 45.022003187284 10.724432825084
154	1568743 19084 239 328181 1.11 59.91 589 19.980359077368 24.47886132468 12166.715924754 252183.53542881
156	1587827 10903 239 328181 1.11 59.91 589 7 7 4123 28861
168	1598730 24232 975 328355 1.254434801937 59.954426068056 588 0.099987231847 0.100000839804 58.799991507669 5.8799983042969
167	1622962 24248 1068 328454 1.254913762602 59.954918305419 588 0.09990923026 0.100091786579 58.800017784367 5.8800045926343
166	1647210 16695 975 328355 1.254434801937 59.954426068056 588 7 7 4116 28812
165	1663905 16701 1068 328454 1.254913762602 59.954918305419 588 7 7 4116 28812
164	1680606 917 5109 328603 2 60 59 0 0 0 0
163	1681523 1272 5109 328603 2 60 59 0.022969 0.02625 1.545469 0.040493199961
162	1682795 917 5109 328603 2 60 59 7 7 413 2891
