version 2
run SinusoidalJammingDetail-877-20170802-14:29:59-98339
attr CACCSpacing 20
attr attackAcc -30
attr attackPos 7
attr attackSpeed 150
attr attackStart 30.5
attr attacker 1
attr beaconInterval 0.1
attr configname SinusoidalJammingDetail
attr controller 1
attr datetime 20170802-14:29:59
attr experiment SinusoidalJammingDetail
attr fakeAcc "(1 == 4)"
attr fakePos "(1 == 2)"
attr fakeSpeed "(1 == 3)"
attr inifile omnetpp_877.ini
attr iterationvars "$leaderSpeed=150, $controller=1, $CACCSpacing=20, $sController=\"CACC\", $attacker=1, $attackStart=30.5, $attackSpeed=150, $attackPos=7, $attackAcc=-30, $0=20, $1=0, $nCars=8, $platoonSize=8, $nLanes=1, $beaconInterval=0.1, $priority=2, $packetSize=200, $ploegH=0.5, $leaderHeadway=1.2, $fakeSpeed=(1 == 3), $fakeAcc=(1 == 4), $fakePos=(1 == 2)"
attr iterationvarsf leaderSpeed=150,controller=1,CACCSpacing=20,sController=CACC,attacker=1,attackStart=30.5,attackSpeed=150,attackPos=7,attackAcc=-30,20,0,nCars=8,platoonSize=8,nLanes=1,beaconInterval=0.1,priority=2,packetSize=200,ploegH=0.5,leaderHeadway=1.2,fakeSpeed=(1_==_3),fakeAcc=(1_==_4),fakePos=(1_==_2)-
attr leaderHeadway 1.2
attr leaderSpeed 150
attr measurement "$leaderSpeed=150, $controller=1, $CACCSpacing=20, $sController=\"CACC\", $attacker=1, $attackStart=30.5, $attackSpeed=150, $attackPos=7, $attackAcc=-30, $0=20, $1=0, $nCars=8, $platoonSize=8, $nLanes=1, $beaconInterval=0.1, $priority=2, $packetSize=200, $ploegH=0.5, $leaderHeadway=1.2, $fakeSpeed=(1 == 3), $fakeAcc=(1 == 4), $fakePos=(1 == 2)"
attr nCars 8
attr nLanes 1
attr network scenario
attr packetSize 200
attr platoonSize 8
attr ploegH 0.5
attr priority 2
attr processid 98339
attr repetition 2
attr replication #2
attr resultdir results
attr runnumber 877
attr sController "\"CACC\""
attr seedset 2
param **.coreDebug false
param **.debug false
param **.headway 0.1s
param **.numberOfCars 8
param **.numberOfCarsPerPlatoon 8
param **.numberOfLanes 1
param **.numericController 1
param **.traffic.nCars 8
param **.traffic.nLanes 1
param **.traffic.platoonInsertDistance 20m
param **.traffic.platoonInsertHeadway 0s
param **.traffic.platoonInsertSpeed 150kmph
param **.traffic.platoonInsertTime "1 s"
param **.traffic.platoonLeaderHeadway 1.2s
param **.traffic.platoonSize 8
param **.traffic.platooningVType "\"vtypeauto\""
param **.traffic_type "\"PlatoonsTrafficManager\""
param *.**.nic.mac1609_4.bitrate 6Mbps
param *.**.nic.mac1609_4.txPower 100mW
param *.**.nic.mac1609_4.useServiceChannel false
param *.**.nic.phy80211p.analogueModels "xmldoc(\"config.xml\")"
param *.**.nic.phy80211p.decider "xmldoc(\"config.xml\")"
param *.**.nic.phy80211p.maxTXPower 100mW
param *.**.nic.phy80211p.sensitivity -94dBm
param *.**.nic.phy80211p.thermalNoise -95dBm
param *.**.nic.phy80211p.usePropagationDelay true
param *.**.nic.phy80211p.useThermalNoise true
param *.annotations.draw false
param *.connectionManager.alpha 2.0
param *.connectionManager.carrierFrequency "5.890e9 Hz"
param *.connectionManager.pMax 100mW
param *.connectionManager.sat -94dBm
param *.connectionManager.sendDirect true
param *.manager.autoShutdown true
param *.manager.commandLine "\"sumo --remote-port $port --seed $seed --configuration-file $configFile\""
param *.manager.configFile "\"./sumocfg/freeway.sumo.cfg\""
param *.manager.host "\"localhost\""
param *.manager.margin 25
param *.manager.moduleDisplayString "\"\""
param *.manager.moduleName "\"node\""
param *.manager.moduleType "\"Car\""
param *.manager.updateInterval 0.01s
param *.node[*].appl.attackStart 30.5s
param *.node[*].appl.attackerType 1
param *.node[*].appl.simulationDuration "60 s"
param *.node[*].appl_type "\"SimplePlatooningApp\""
param *.node[*].helper.nCars 8
param *.node[*].helper.nLanes 1
param *.node[*].helper.platoonSize 8
param *.node[*].helper_type "\"PositionHelper\""
param *.node[*].mobility.x 0
param *.node[*].mobility.y 0
param *.node[*].mobility.z 1.895
param *.node[*].prot.attackStart 30.5s
param *.node[*].prot.attackerType 1
param *.node[*].prot.attackingNode 3
param *.node[*].prot.beaconingInterval 0.1s
param *.node[*].prot.fakeAcc "(1 == 4)"
param *.node[*].prot.fakePos "(1 == 2)"
param *.node[*].prot.fakeSpeed "(1 == 3)"
param *.node[*].prot.maliciousAcc "-30 mpss"
param *.node[*].prot.maliciousSpeed 150kmph
param *.node[*].prot.packetSize 200
param *.node[*].prot.priority 2
param *.node[*].prot.shiftX "7 m"
param *.node[*].prot.useControllerAcceleration true
param *.node[*].protocol_type "\"SimplePlatooningBeaconing\""
param *.node[*].scenario.accHeadway 0.1s
param *.node[*].scenario.caccC1 0.5
param *.node[*].scenario.caccOmegaN "0.2 Hz"
param *.node[*].scenario.caccSpacing 20m
param *.node[*].scenario.caccXi 1
param *.node[*].scenario.controller "\"CACC\""
param *.node[*].scenario.engineTau "0.5 s"
param *.node[*].scenario.leaderHeadway 1.2s
param *.node[*].scenario.leaderOscillationFrequency "0.2 Hz"
param *.node[*].scenario.leaderSpeed 150kmph
param *.node[*].scenario.oscillationAmplitude "10 kmph"
param *.node[*].scenario.ploegH 0.5s
param *.node[*].scenario.ploegKd 0.7
param *.node[*].scenario.ploegKp 0.2
param *.node[*].scenario.startOscillating "5 s"
param *.node[*].scenario.useRealisticEngine false
param *.node[*].scenario_type "\"SinusoidalScenario\""
param *.node[*].unicast.packetLossRate 0
param *.obstacles.debug false
param *.playgroundSizeX 65000m
param *.playgroundSizeY 25000m
param *.playgroundSizeZ 50m
param *.world.use2D false
param *.world.useTorus false

vector 0  scenario.node[0].appl  distance  ETV
vector 1  scenario.node[0].appl  relativeSpeed  ETV
vector 2  scenario.node[0].appl  nodeId  ETV
vector 6  scenario.node[0].appl  acceleration  ETV
vector 7  scenario.node[0].appl  controllerAcceleration  ETV
vector 3  scenario.node[0].appl  speed  ETV
vector 4  scenario.node[0].appl  posx  ETV
vector 5  scenario.node[0].appl  posy  ETV
vector 22  scenario.node[1].appl  distance  ETV
vector 23  scenario.node[1].appl  relativeSpeed  ETV
vector 24  scenario.node[1].appl  nodeId  ETV
vector 28  scenario.node[1].appl  acceleration  ETV
vector 29  scenario.node[1].appl  controllerAcceleration  ETV
vector 25  scenario.node[1].appl  speed  ETV
vector 26  scenario.node[1].appl  posx  ETV
vector 27  scenario.node[1].appl  posy  ETV
vector 44  scenario.node[2].appl  distance  ETV
vector 45  scenario.node[2].appl  relativeSpeed  ETV
vector 46  scenario.node[2].appl  nodeId  ETV
vector 50  scenario.node[2].appl  acceleration  ETV
vector 51  scenario.node[2].appl  controllerAcceleration  ETV
vector 47  scenario.node[2].appl  speed  ETV
vector 48  scenario.node[2].appl  posx  ETV
vector 49  scenario.node[2].appl  posy  ETV
vector 66  scenario.node[3].appl  distance  ETV
vector 67  scenario.node[3].appl  relativeSpeed  ETV
vector 68  scenario.node[3].appl  nodeId  ETV
vector 72  scenario.node[3].appl  acceleration  ETV
vector 73  scenario.node[3].appl  controllerAcceleration  ETV
vector 69  scenario.node[3].appl  speed  ETV
vector 70  scenario.node[3].appl  posx  ETV
vector 71  scenario.node[3].appl  posy  ETV
vector 88  scenario.node[4].appl  distance  ETV
vector 89  scenario.node[4].appl  relativeSpeed  ETV
vector 90  scenario.node[4].appl  nodeId  ETV
vector 94  scenario.node[4].appl  acceleration  ETV
vector 95  scenario.node[4].appl  controllerAcceleration  ETV
vector 91  scenario.node[4].appl  speed  ETV
vector 92  scenario.node[4].appl  posx  ETV
vector 93  scenario.node[4].appl  posy  ETV
vector 110  scenario.node[5].appl  distance  ETV
vector 111  scenario.node[5].appl  relativeSpeed  ETV
vector 112  scenario.node[5].appl  nodeId  ETV
vector 116  scenario.node[5].appl  acceleration  ETV
vector 117  scenario.node[5].appl  controllerAcceleration  ETV
vector 113  scenario.node[5].appl  speed  ETV
vector 114  scenario.node[5].appl  posx  ETV
vector 115  scenario.node[5].appl  posy  ETV
vector 132  scenario.node[6].appl  distance  ETV
vector 133  scenario.node[6].appl  relativeSpeed  ETV
vector 134  scenario.node[6].appl  nodeId  ETV
vector 138  scenario.node[6].appl  acceleration  ETV
vector 139  scenario.node[6].appl  controllerAcceleration  ETV
vector 135  scenario.node[6].appl  speed  ETV
vector 136  scenario.node[6].appl  posx  ETV
vector 137  scenario.node[6].appl  posy  ETV
vector 154  scenario.node[7].appl  distance  ETV
vector 155  scenario.node[7].appl  relativeSpeed  ETV
vector 156  scenario.node[7].appl  nodeId  ETV
vector 160  scenario.node[7].appl  acceleration  ETV
vector 161  scenario.node[7].appl  controllerAcceleration  ETV
vector 157  scenario.node[7].appl  speed  ETV
vector 158  scenario.node[7].appl  posx  ETV
vector 159  scenario.node[7].appl  posy  ETV
vector 168  scenario.node[7].prot  frontDelay  ETV
vector 166  scenario.node[7].prot  frontDelayId  ETV
vector 146  scenario.node[6].prot  frontDelay  ETV
vector 144  scenario.node[6].prot  frontDelayId  ETV
vector 35  scenario.node[1].prot  leaderDelay  ETV
vector 33  scenario.node[1].prot  leaderDelayId  ETV
vector 36  scenario.node[1].prot  frontDelay  ETV
vector 34  scenario.node[1].prot  frontDelayId  ETV
vector 57  scenario.node[2].prot  leaderDelay  ETV
vector 55  scenario.node[2].prot  leaderDelayId  ETV
vector 79  scenario.node[3].prot  leaderDelay  ETV
vector 77  scenario.node[3].prot  leaderDelayId  ETV
vector 101  scenario.node[4].prot  leaderDelay  ETV
vector 99  scenario.node[4].prot  leaderDelayId  ETV
vector 123  scenario.node[5].prot  leaderDelay  ETV
vector 121  scenario.node[5].prot  leaderDelayId  ETV
vector 145  scenario.node[6].prot  leaderDelay  ETV
vector 143  scenario.node[6].prot  leaderDelayId  ETV
vector 167  scenario.node[7].prot  leaderDelay  ETV
vector 165  scenario.node[7].prot  leaderDelayId  ETV
vector 102  scenario.node[4].prot  frontDelay  ETV
vector 100  scenario.node[4].prot  frontDelayId  ETV
vector 80  scenario.node[3].prot  frontDelay  ETV
vector 78  scenario.node[3].prot  frontDelayId  ETV
vector 124  scenario.node[5].prot  frontDelay  ETV
vector 122  scenario.node[5].prot  frontDelayId  ETV
vector 58  scenario.node[2].prot  frontDelay  ETV
vector 56  scenario.node[2].prot  frontDelayId  ETV
vector 8  scenario.node[0].prot  nodeId  ETV
vector 9  scenario.node[0].prot  busyTime  ETV
vector 10  scenario.node[0].prot  collisions  ETV
vector 30  scenario.node[1].prot  nodeId  ETV
vector 31  scenario.node[1].prot  busyTime  ETV
vector 32  scenario.node[1].prot  collisions  ETV
vector 52  scenario.node[2].prot  nodeId  ETV
vector 53  scenario.node[2].prot  busyTime  ETV
vector 54  scenario.node[2].prot  collisions  ETV
vector 74  scenario.node[3].prot  nodeId  ETV
vector 75  scenario.node[3].prot  busyTime  ETV
vector 76  scenario.node[3].prot  collisions  ETV
vector 96  scenario.node[4].prot  nodeId  ETV
vector 97  scenario.node[4].prot  busyTime  ETV
vector 98  scenario.node[4].prot  collisions  ETV
vector 118  scenario.node[5].prot  nodeId  ETV
vector 119  scenario.node[5].prot  busyTime  ETV
vector 120  scenario.node[5].prot  collisions  ETV
vector 140  scenario.node[6].prot  nodeId  ETV
vector 141  scenario.node[6].prot  busyTime  ETV
vector 142  scenario.node[6].prot  collisions  ETV
vector 162  scenario.node[7].prot  nodeId  ETV
vector 163  scenario.node[7].prot  busyTime  ETV
vector 164  scenario.node[7].prot  collisions  ETV
7	232	1.11	-1.264609664986e-06
7	788	1.21	-1.2370558053476e-06
7	1344	1.31	-1.1922643139428e-06
7	1900	1.41	-1.1341353030048e-06
7	2456	1.51	-1.0661075364737e-06
7	3012	1.61	-9.9117950469463e-07
7	3568	1.71	-9.1193474816009e-07
7	4124	1.81	-8.3057002342457e-07
7	4680	1.91	-7.4892560064654e-07
7	5244	2.01	-6.6851609403784e-07
7	5800	2.11	-5.9056183232542e-07
7	6356	2.21	-5.1602003736662e-07
7	6912	2.31	-4.4561458878434e-07
7	7468	2.41	-3.7986517753552e-07
7	8024	2.51	-3.1911461206846e-07
7	8580	2.61	-2.6355444049386e-07
7	9136	2.71	-2.1324864718508e-07
7	9692	2.81	-1.6815555881067e-07
7	10248	2.91	-1.2814749794643e-07
7	10812	3.01	-9.3028553749264e-08
7	11368	3.11	-6.255026363533e-08
7	11924	3.21	-3.6425589655664e-08
7	12480	3.31	-1.4340962195547e-08
7	13036	3.41	4.0332679418498e-09
7	13592	3.51	1.9034231968362e-08
7	14148	3.61	3.0998883460143e-08
7	14704	3.71	4.0258086642098e-08
7	15260	3.81	4.7131671010447e-08
7	15816	3.91	5.1925063360159e-08
7	16380	4.01	5.4926061920924e-08
7	16936	4.11	5.6402775783226e-08
7	17492	4.21	5.6602530662531e-08
7	18048	4.31	5.5751151251116e-08
7	18604	4.41	5.4052726738973e-08
7	19160	4.51	5.1689909241759e-08
7	19716	4.61	4.8824482234977e-08
7	20272	4.71	4.5598198994412e-08
7	20828	4.81	4.2133798672239e-08
7	21384	4.91	3.8536192903393e-08
7	21949	5.01	3.4893794520485e-08
7	22506	5.11	0.34814790229188
7	23063	5.21	0.68726938086839
7	23620	5.31	1.0064706392337
7	24177	5.41	1.2963311769431
7	24734	5.51	1.5
7	25291	5.61	1.5
7	25848	5.71	1.5
7	26405	5.81	1.5
7	26962	5.91	1.5
7	27527	6.01	1.5
7	28084	6.11	1.5
7	28641	6.21	1.5
7	29198	6.31	1.5
7	29755	6.41	1.5
7	30312	6.51	1.4919234166485
7	30869	6.61	1.2264993309071
7	31426	6.71	0.9230538423432
7	31983	6.81	0.58908102202894
7	32540	6.91	0.23235621850268
7	33105	7.01	-0.13919559587845
7	33662	7.11	-0.51762846369643
7	34219	7.21	-0.89509993758214
7	34776	7.31	-1.2639902868434
7	35333	7.41	-1.5
7	35890	7.51	-1.5
7	36447	7.61	-1.5
7	37004	7.71	-1.5
7	37561	7.81	-1.5
7	38118	7.91	-1.5
7	38683	8.01	-1.5
7	39240	8.11	-1.5
7	39797	8.21	-1.5
7	40354	8.31	-1.5
7	40911	8.41	-1.5
7	41468	8.51	-1.5
7	42025	8.61	-1.5
7	42582	8.71	-1.5
7	43139	8.81	-1.5
7	43696	8.91	-1.5
7	44261	9.01	-1.5
7	44818	9.11	-1.5
7	45375	9.21	-1.5
7	45932	9.31	-1.5
7	46489	9.41	-1.5
7	47046	9.51	-1.1784535903605
7	47603	9.61	-0.73985166412807
7	48160	9.71	-0.29046662052636
7	48717	9.81	0.1586820567595
7	49274	9.91	0.59737147696769
7	49839	10.01	1.0162504342412
7	50396	10.11	1.4069035499393
7	50953	10.21	1.5
7	51510	10.31	1.5
7	52067	10.41	1.5
7	52624	10.51	1.5
7	53181	10.61	1.5
7	53738	10.71	1.5
7	54295	10.81	1.5
7	54852	10.91	1.5
7	55417	11.01	1.5
7	55974	11.11	1.5
7	56531	11.21	1.5
7	57088	11.31	1.5
7	57645	11.41	1.5
7	58202	11.51	1.5
7	58759	11.61	1.5
7	59316	11.71	1.5
7	59873	11.81	1.5
7	60430	11.91	1.1420569523654
7	60995	12.01	0.73271074176932
7	61552	12.11	0.30763491705864
7	62109	12.21	-0.12290183397916
7	62666	12.31	-0.54917422862574
7	63223	12.41	-0.96209331714029
7	63780	12.51	-1.3532900275071
7	64337	12.61	-1.5
7	64894	12.71	-1.5
7	65451	12.81	-1.5
7	66008	12.91	-1.5
7	66573	13.01	-1.5
7	67130	13.11	-1.5
7	67687	13.21	-1.5
7	68244	13.31	-1.5
7	68801	13.41	-1.5
7	69358	13.51	-1.5
7	69915	13.61	-1.5
7	70472	13.71	-1.5
7	71029	13.81	-1.5
7	71586	13.91	-1.5
7	72151	14.01	-1.5
7	72708	14.11	-1.5
7	73265	14.21	-1.5
7	73822	14.31	-1.5
7	74379	14.41	-1.3008305793046
7	74936	14.51	-0.88835736019924
7	75493	14.61	-0.45792464373664
7	76050	14.71	-0.020297800469415
7	76607	14.81	0.41435934758473
7	77164	14.91	0.83657487485725
7	77729	15.01	1.2376491839042
7	78286	15.11	1.5
7	78843	15.21	1.5
7	79400	15.31	1.5
7	79957	15.41	1.5
7	80514	15.51	1.5
7	81071	15.61	1.5
7	81628	15.71	1.5
7	82185	15.81	1.5
7	82742	15.91	1.5
7	83307	16.01	1.5
7	83864	16.11	1.5
7	84421	16.21	1.5
7	84978	16.31	1.5
7	85535	16.41	1.5
7	86092	16.51	1.5
7	86649	16.61	1.5
7	87206	16.71	1.5
7	87763	16.81	1.5
7	88320	16.91	1.2451238477419
7	88885	17.01	0.83347870135727
7	89442	17.11	0.40470958877236
7	89999	17.21	-0.030598062215738
7	90556	17.31	-0.46243980386358
7	91113	17.41	-0.88148335304344
7	91670	17.51	-1.2791500631696
7	92227	17.61	-1.5
7	92784	17.71	-1.5
7	93341	17.81	-1.5
7	93898	17.91	-1.5
7	94463	18.01	-1.5
7	95020	18.11	-1.5
7	95577	18.21	-1.5
7	96134	18.31	-1.5
7	96691	18.41	-1.5
7	97248	18.51	-1.5
7	97805	18.61	-1.5
7	98362	18.71	-1.5
7	98919	18.81	-1.5
7	99476	18.91	-1.5
7	100041	19.01	-1.5
7	100598	19.11	-1.5
7	101155	19.21	-1.5
7	101712	19.31	-1.5
7	102269	19.41	-1.2657245815119
7	102826	19.51	-0.85377693481423
7	103383	19.61	-0.42439560038014
7	103940	19.71	0.011767371268903
7	104497	19.81	0.44464851836469
7	105054	19.91	0.86486384400589
7	105619	20.01	1.2637899041132
7	106176	20.11	1.5
7	106733	20.21	1.5
7	107290	20.31	1.5
7	107847	20.41	1.5
7	108404	20.51	1.5
7	108961	20.61	1.5
7	109518	20.71	1.5
7	110075	20.81	1.5
7	110632	20.91	1.5
7	111197	21.01	1.5
7	111754	21.11	1.5
7	112311	21.21	1.5
7	112868	21.31	1.5
7	113425	21.41	1.5
7	113982	21.51	1.5
7	114539	21.61	1.5
7	115096	21.71	1.5
7	115653	21.81	1.5
7	116210	21.91	1.2580915517757
7	116775	22.01	0.84625491634767
7	117332	22.11	0.41709956367446
7	117889	22.21	-0.01874716354331
7	118446	22.31	-0.45124369149482
7	119003	22.41	-0.87102520538662
7	119560	22.51	-1.2694848794604
7	120117	22.61	-1.5
7	120674	22.71	-1.5
7	121231	22.81	-1.5
7	121788	22.91	-1.5
7	122353	23.01	-1.5
7	122910	23.11	-1.5
7	123467	23.21	-1.5
7	124024	23.31	-1.5
7	124581	23.41	-1.5
7	125138	23.51	-1.5
7	125695	23.61	-1.5
7	126252	23.71	-1.5
7	126809	23.81	-1.5
7	127366	23.91	-1.5
7	127931	24.01	-1.5
7	128488	24.11	-1.5
7	129045	24.21	-1.5
7	129602	24.31	-1.5
7	130159	24.41	-1.2609239651136
7	130716	24.51	-0.84904615684721
7	131273	24.61	-0.41980696481297
7	131830	24.71	0.0161570994443
7	132387	24.81	0.44879633965842
7	132944	24.91	0.86873882266714
7	133509	25.01	1.267371555718
7	134066	25.11	1.5
7	134623	25.21	1.5
7	135180	25.31	1.5
7	135737	25.41	1.5
7	136294	25.51	1.5
7	136851	25.61	1.5
7	137408	25.71	1.5
7	137965	25.81	1.5
7	138522	25.91	1.5
7	139087	26.01	1.5
7	139644	26.11	1.5
7	140201	26.21	1.5
7	140758	26.31	1.5
7	141315	26.41	1.5
7	141872	26.51	1.5
7	142429	26.61	1.5
7	142986	26.71	1.5
7	143543	26.81	1.5
7	144100	26.91	1.259872851865
7	144665	27.01	0.84801032251606
7	145222	27.11	0.41880224309333
7	145779	27.21	-0.017118277439927
7	146336	27.31	-0.449704557082
7	146893	27.41	-0.86958730431672
7	147450	27.51	-1.2681558149805
7	148007	27.61	-1.5
7	148564	27.71	-1.5
7	149121	27.81	-1.5
7	149678	27.91	-1.5
7	150243	28.01	-1.5
7	150800	28.11	-1.5
7	151357	28.21	-1.5
7	151914	28.31	-1.5
7	152471	28.41	-1.5
7	153028	28.51	-1.5
7	153585	28.61	-1.5
7	154142	28.71	-1.5
7	154699	28.81	-1.5
7	155256	28.91	-1.5
7	155821	29.01	-1.5
7	156378	29.11	-1.5
7	156935	29.21	-1.5
7	157492	29.31	-1.5
7	158049	29.41	-1.2602629232498
7	158606	29.51	-0.84839472385467
7	159163	29.61	-0.41917509845132
7	159720	29.71	0.016761581288272
7	160277	29.81	0.44936751475921
7	160834	29.91	0.8692724301223
7	161399	30.01	1.2678647739114
7	161956	30.11	1.5
7	162513	30.21	1.5
7	163070	30.31	1.5
7	163627	30.41	1.5
7	164184	30.51	1.5
7	164741	30.61	1.5
7	165298	30.71	1.5
7	165855	30.81	1.5
7	166412	30.91	1.5
7	166977	31.01	1.5
7	167534	31.11	1.5
7	168091	31.21	1.5
7	168648	31.31	1.5
7	169205	31.41	1.5
7	169762	31.51	1.5
7	170319	31.61	1.5
7	170876	31.71	1.5
7	171433	31.81	1.5
7	171990	31.91	1.2601181665227
7	172555	32.01	0.84825207129943
7	173112	32.11	0.41903673064581
7	173669	32.21	-0.016893952361286
7	174226	32.31	-0.44949259223436
7	174783	32.41	-0.86938928093497
7	175340	32.51	-1.2679727801759
7	175897	32.61	-1.5
7	176454	32.71	-1.5
7	177011	32.81	-1.5
7	177568	32.91	-1.5
7	178133	33.01	-1.5
7	178690	33.11	-1.5
7	179247	33.21	-1.5
7	179804	33.31	-1.5
7	180361	33.41	-1.5
7	180918	33.51	-1.5
7	181475	33.61	-1.5
7	182032	33.71	-1.5
7	182589	33.81	-1.5
7	183146	33.91	-1.5
7	183711	34.01	-1.5
7	184268	34.11	-1.5
7	184825	34.21	-1.5
7	185382	34.31	-1.5
7	185939	34.41	-1.2601718862024
7	186496	34.51	-0.8483050101143
7	187053	34.61	-0.41908807937658
7	187610	34.71	0.01684482903692
7	188167	34.81	0.44944617558719
7	188724	34.91	0.86934591722818
7	189289	35.01	1.2679326987088
7	189846	35.11	1.5
7	190403	35.21	1.5
7	190960	35.31	1.5
7	191517	35.41	1.5
7	192074	35.51	1.5
7	192631	35.61	1.5
7	193188	35.71	1.5
7	193745	35.81	1.5
7	194302	35.91	1.5
7	194867	36.01	1.5
7	195424	36.11	1.5
7	195981	36.21	1.5
7	196538	36.31	1.5
7	197095	36.41	1.5
7	197652	36.51	1.5
7	198209	36.61	1.5
7	198766	36.71	1.5
7	199323	36.81	1.5
7	199880	36.91	1.2601519506581
7	200445	37.01	0.84828536435142
7	201002	37.11	0.4190690236989
7	201559	37.21	-0.016863058859194
7	202116	37.31	-0.44946340095288
7	202673	37.41	-0.86936200963796
7	203230	37.51	-1.267947573069
7	203787	37.61	-1.5
7	204344	37.71	-1.5
7	204901	37.81	-1.5
7	205458	37.91	-1.5
7	206023	38.01	-1.5
7	206580	38.11	-1.5
7	207137	38.21	-1.5
7	207694	38.31	-1.5
7	208251	38.41	-1.5
7	208808	38.51	-1.5
7	209365	38.61	-1.5
7	209922	38.71	-1.5
7	210479	38.81	-1.5
7	211036	38.91	-1.5
7	211601	39.01	-1.5
7	212158	39.11	-1.5
7	212715	39.21	-1.5
7	213272	39.31	-1.5
7	213829	39.41	-1.2601593487988
7	214386	39.51	-0.84829265495311
7	214943	39.61	-0.41907609531799
7	215500	39.71	0.016856293717773
7	216057	39.81	0.44945700856863
7	216614	39.91	0.86935603769736
7	217179	40.01	1.2679420531504
7	217736	40.11	1.5
7	218293	40.21	1.5
7	218850	40.31	1.5
7	219407	40.41	1.5
7	219964	40.51	1.5
7	220521	40.61	1.5
7	221078	40.71	1.5
7	221635	40.81	1.5
7	222192	40.91	1.5
7	222757	41.01	1.5
7	223314	41.11	1.5
7	223871	41.21	1.5
7	224428	41.31	1.5
7	224985	41.41	1.5
7	225542	41.51	1.5
7	226099	41.61	1.5
7	226656	41.71	1.5
7	227213	41.81	1.5
7	227770	41.91	1.2601566033294
7	228335	42.01	0.84828994939168
7	228892	42.11	0.41907347102163
7	229449	42.21	-0.016858804279352
7	230006	42.31	-0.44945938079898
7	230563	42.41	-0.86935825389997
7	231120	42.51	-1.2679441016066
7	231677	42.61	-1.5
7	232234	42.71	-1.5
7	232791	42.81	-1.5
7	233348	42.91	-1.5
7	233913	43.01	-1.5
7	234470	43.11	-1.5
7	235027	43.21	-1.5
7	235584	43.31	-1.5
7	236141	43.41	-1.5
7	236698	43.51	-1.5
7	237255	43.61	-1.5
7	237812	43.71	-1.5
7	238369	43.81	-1.5
7	238926	43.91	-1.5
7	239491	44.01	-1.5
7	240048	44.11	-1.5
7	240605	44.21	-1.5
7	241162	44.31	-1.5
7	241719	44.41	-1.2601576221806
7	242276	44.51	-0.84829095343307
7	242833	44.61	-0.4190744449053
7	243390	44.71	0.016857872603055
7	243947	44.81	0.44945850045782
7	244504	44.91	0.86935743146108
7	245069	45.01	1.2679433414188
6	232	1.11	-1.8587371641843e-07
6	788	1.21	-3.7715039979958e-07
6	1344	1.31	-5.2730015909219e-07
6	1900	1.41	-6.4101826069418e-07
6	2456	1.51	-7.2280812446479e-07
6	3012	1.61	-7.7694011224594e-07
6	3568	1.71	-8.0741315855448e-07
6	4124	1.81	-8.1792990158647e-07
6	4680	1.91	-8.1188602507609e-07
6	5244	2.01	-7.9236670558203e-07
6	5800	2.11	-7.6214163868826e-07
6	6356	2.21	-7.2367640768789e-07
6	6912	2.31	-6.7914172063865e-07
6	7468	2.41	-6.3042691067494e-07
6	8024	2.51	-5.791562784907e-07
6	8580	2.61	-5.2670969807878e-07
6	9136	2.71	-4.7423895921384e-07
6	9692	2.81	-4.226883731917e-07
6	10248	2.91	-3.7281679965417e-07
6	10812	3.01	-3.2521825232834e-07
6	11368	3.11	-2.8033753096679e-07
6	11924	3.21	-2.3849224817241e-07
6	12480	3.31	-1.9988561916762e-07
6	13036	3.41	-1.6463133079014e-07
6	13592	3.51	-1.3275709420668e-07
6	14148	3.61	-1.0422880336591e-07
6	14704	3.71	-7.8954798254927e-08
6	15260	3.81	-5.6805049553077e-08
6	15816	3.91	-3.7617553516611e-08
6	16380	4.01	-2.1201884692346e-08
6	16936	4.11	-7.354117315117e-09
6	17492	4.21	4.1374903503311e-09
6	18048	4.31	1.3491074923877e-08
6	18604	4.41	2.0921930854456e-08
6	19160	4.51	2.6641799877325e-08
6	19716	4.61	3.0856028843118e-08
6	20272	4.71	3.3759306461434e-08
6	20828	4.81	3.5534952758098e-08
6	21384	4.91	3.6354919075166e-08
6	21949	5.01	3.6375524814503e-08
6	22506	5.11	0.0068264645847194
6	23063	5.21	0.074594848256737
6	23620	5.31	0.19005135781356
6	24177	5.41	0.34050273679327
6	24734	5.51	0.51301639903159
6	25291	5.61	0.69025459358016
6	25848	5.71	0.8357267325124
6	26405	5.81	0.95506455436478
6	26962	5.91	1.0529631336311
6	27527	6.01	1.1332740666944
6	28084	6.11	1.1991570040927
6	28641	6.21	1.2532039597787
6	29198	6.31	1.2975412879882
6	29755	6.41	1.3339133398063
6	30312	6.51	1.3635927262982
6	30869	6.61	1.370205363024
6	31426	6.71	1.3272611941339
6	31983	6.81	1.237381093641
6	32540	6.91	1.1040433769786
6	33105	7.01	0.9314709214955
6	33662	7.11	0.72451590696545
6	34219	7.21	0.48854318469935
6	34776	7.31	0.22931329740459
6	35333	7.41	-0.044839397355645
6	35890	7.51	-0.30626147357466
6	36447	7.61	-0.52071862935179
6	37004	7.71	-0.69664819248914
6	37561	7.81	-0.84097171050672
6	38118	7.91	-0.95936726314534
6	38683	8.01	-1.0564928534642
6	39240	8.11	-1.1361696663563
6	39797	8.21	-1.2015324043531
6	40354	8.31	-1.255152615343
6	40911	8.41	-1.299139864269
6	41468	8.51	-1.3352247291408
6	42025	8.61	-1.3648268866902
6	42582	8.71	-1.3891109663092
6	43139	8.81	-1.4090323697367
6	43696	8.91	-1.4253748591699
6	44261	9.01	-1.4387813925914
6	44818	9.11	-1.4497794194909
6	45375	9.21	-1.4588016321618
6	45932	9.31	-1.466202988987
6	46489	9.41	-1.4722746794739
6	47046	9.51	-1.469624914661
6	47603	9.61	-1.3967850638842
6	48160	9.71	-1.2587757640922
6	48717	9.81	-1.0660952217464
6	49274	9.91	-0.82923335013376
6	49839	10.01	-0.55852907828324
6	50396	10.11	-0.26404116063858
6	50953	10.21	0.039432698787323
6	51510	10.31	0.30182609759564
6	52067	10.41	0.51708007620732
6	52624	10.51	0.69366331160268
6	53181	10.61	0.83852306854624
6	53738	10.71	0.95735852387477
6	54295	10.81	1.0548449876183
6	54852	10.91	1.1348178424115
6	55417	11.01	1.2004234378772
6	55974	11.11	1.2542428765791
6	56531	11.21	1.2983935616198
6	57088	11.31	1.3346125010308
6	57645	11.41	1.3643246463992
6	58202	11.51	1.3886989543394
6	58759	11.61	1.4086943764177
6	59316	11.71	1.425097586926
6	59873	11.81	1.4385539327783
6	60430	11.91	1.434562737289
6	60995	12.01	1.3623449188863
6	61552	12.11	1.229987565462
6	62109	12.21	1.0461448397947
6	62666	12.31	0.81967864250814
6	63223	12.41	0.55952045906622
6	63780	12.51	0.27454262951352
6	64337	12.61	-0.022341644856283
6	64894	12.71	-0.28780548056062
6	65451	12.81	-0.50557828686024
6	66008	12.91	-0.68422783826705
6	66573	13.01	-0.83078269403671
6	67130	13.11	-0.95100872080636
6	67687	13.21	-1.049635937467
6	68244	13.31	-1.1305446069755
6	68801	13.41	-1.1969178964527
6	69358	13.51	-1.2513671116331
6	69915	13.61	-1.2960344327361
6	70472	13.71	-1.3326771936626
6	71029	13.81	-1.3627370202911
6	71586	13.91	-1.3873965479604
6	72151	14.01	-1.4076259495589
6	72708	14.11	-1.4242211047687
6	73265	14.21	-1.4378349121301
6	73822	14.31	-1.4490029758548
6	74379	14.41	-1.4542593951845
6	74936	14.51	-1.4067454390002
6	75493	14.61	-1.2938574955257
6	76050	14.71	-1.1248409052179
6	76607	14.81	-0.90912582141769
6	77164	14.91	-0.65618298375156
6	77729	15.01	-0.37539052552589
6	78286	15.11	-0.078063005077667
6	78843	15.21	0.20543869668828
6	79400	15.31	0.43800883574505
6	79957	15.41	0.62879735392087
6	80514	15.51	0.78531039044307
6	81071	15.61	0.91370559386164
6	81628	15.71	1.0190343806975
6	82185	15.81	1.1054406719069
6	82742	15.91	1.1763239259999
6	83307	16.01	1.2344728829831
6	83864	16.11	1.2821752809849
6	84421	16.21	1.3213078620858
6	84978	16.31	1.353410208462
6	85535	16.41	1.3797453137336
6	86092	16.51	1.4013492725695
6	86649	16.61	1.4190720434712
6	87206	16.71	1.4336108884486
6	87763	16.81	1.4455378052077
6	88320	16.91	1.4502949065331
6	88885	17.01	1.3935559567543
6	89442	17.11	1.2733368701461
6	89999	17.21	1.0986742440551
6	90556	17.31	0.8787967659174
6	91113	17.41	0.6229832927616
6	91670	17.51	0.34043137853601
6	92227	17.61	0.043031849082098
6	92784	17.71	-0.23417644595227
6	93341	17.81	-0.46158379949475
6	93898	17.91	-0.64813703535265
6	94463	18.01	-0.80117566522517
6	95020	18.11	-0.92672064505592
6	95577	18.21	-1.0297112558185
6	96134	18.31	-1.114199428261
6	96691	18.41	-1.1835091568827
6	97248	18.51	-1.2403672749222
6	97805	18.61	-1.2870107353905
6	98362	18.71	-1.3252746188861
6	98919	18.81	-1.3566643306582
6	99476	18.91	-1.3824148273436
6	100041	19.01	-1.4035392035204
6	100598	19.11	-1.420868549603
6	101155	19.21	-1.4350846492
6	101712	19.31	-1.4467468023348
6	102269	19.41	-1.4517201941764
6	102826	19.51	-1.3984004323881
6	103383	19.61	-1.2808993810083
6	103940	19.71	-1.1083308503771
6	104497	19.81	-0.88999806036725
6	105054	19.91	-0.63525086466711
6	105619	20.01	-0.35335363991251
6	106176	20.11	-0.055983891306255
6	106733	20.21	0.22355126013451
6	107290	20.31	0.45286744637352
6	107847	20.41	0.64098658988883
6	108404	20.51	0.7953098094454
6	108961	20.61	0.92190860023962
6	109518	20.71	1.025763703035
6	110075	20.81	1.110961060045
6	110632	20.91	1.1808525670219
6	111197	21.01	1.2381879459468
6	111754	21.11	1.2852229265718
6	112311	21.21	1.3238079929607
6	112868	21.31	1.3554611865736
6	113425	21.41	1.3814278301389
6	113982	21.51	1.4027295220423
6	114539	21.61	1.4202043287803
6	115096	21.71	1.4345397567773
6	115653	21.81	1.4462998007623
6	116210	21.91	1.4512038299465
6	116775	22.01	1.3966149622043
6	117332	22.11	1.2781048258539
6	117889	22.21	1.104758616826
6	118446	22.31	0.88585193074024
6	119003	22.41	0.63070830476164
6	119560	22.51	0.34856734381066
6	120117	22.61	0.0511856543703
6	120674	22.71	-0.2274874856468
6	121231	22.81	-0.45609652228009
6	121788	22.91	-0.64363555681837
6	122353	23.01	-0.79748288496049
6	122910	23.11	-0.9236912790449
6	123467	23.21	-1.0272261205607
6	124024	23.31	-1.1121607517772
6	124581	23.41	-1.1818367320956
6	125138	23.51	-1.2389953040916
6	125695	23.61	-1.2858852414524
6	126252	23.71	-1.3243513218463
6	126809	23.81	-1.355906905502
6	127366	23.91	-1.3817934749042
6	127931	24.01	-1.403029478103
6	128488	24.11	-1.4204503972238
6	129045	24.21	-1.4347416186069
6	129602	24.31	-1.4464653977718
6	130159	24.41	-1.4513952146871
6	130716	24.51	-1.397277320676
6	131273	24.61	-1.2791416668563
6	131830	24.71	-1.1060840673032
6	132387	24.81	-0.88739036841687
6	132944	24.91	-0.63239387292811
6	133509	25.01	-0.35034337811126
6	134066	25.11	-0.052966136912147
6	134623	25.21	0.22602686982154
6	135180	25.31	0.45489830857193
6	135737	25.41	0.64265260423966
6	136294	25.51	0.7966765214853
6	136851	25.61	0.92302978013734
6	137408	25.71	1.0266834610576
6	137965	25.81	1.1117155819754
6	138522	25.91	1.1814715378058
6	139087	26.01	1.2386957175771
6	139644	26.11	1.2856394761641
6	140201	26.21	1.3241497087101
6	140758	26.31	1.3557415125085
6	141315	26.41	1.3816577950429
6	141872	26.51	1.4029181733591
6	142429	26.61	1.4203590885664
6	142986	26.71	1.4346667137048
6	143543	26.81	1.4464039496623
6	144100	26.91	1.4513241957715
6	144665	27.01	1.3970315218245
6	145222	27.11	1.2787568961947
6	145779	27.21	1.1055921925461
6	146336	27.31	0.8868194531928
6	146893	27.41	0.63176835684402
6	147450	27.51	0.34968428947408
6	148007	27.61	0.052305397196051
6	148564	27.71	-0.22656890652399
6	149121	27.81	-0.45534296745871
6	149678	27.91	-0.64301737940156
6	150243	28.01	-0.79697576417033
6	150800	28.11	-0.92327526336575
6	151357	28.21	-1.0268848428062
6	151914	28.31	-1.1118807851517
6	152471	28.41	-1.1816070619503
6	153028	28.51	-1.2388068945782
6	153585	28.61	-1.2857306800278
6	154142	28.71	-1.3242245276466
6	154699	28.81	-1.3558028900952
6	155256	28.91	-1.3817081460417
6	155821	29.01	-1.4029594787168
6	156378	29.11	-1.4203929733462
6	156935	29.21	-1.4346945110262
6	157492	29.31	-1.446426753148
6	158049	29.41	-1.4513505510308
6	158606	29.51	-1.3971227384744
6	159163	29.61	-1.2788996857282
6	159720	29.71	-1.1057747287524
6	160277	29.81	-0.88703132157306
6	160834	29.91	-0.63200048778214
6	161399	30.01	-0.34992887929945
6	161956	30.11	-0.052550599747292
6	162513	30.21	0.22636775502605
6	163070	30.31	0.45517795316883
6	163627	30.41	0.64288201020943
6	164184	30.51	0.79686471428317
6	164741	30.61	0.92318416377992
6	165298	30.71	1.0268101094155
6	165855	30.81	1.1118194777403
6	166412	30.91	1.181556768519
6	166977	31.01	1.2387656364474
6	167534	31.11	1.2856968339904
6	168091	31.21	1.3241967621056
6	168648	31.31	1.3557801126808
6	169205	31.41	1.3816894606293
6	169762	31.51	1.4029441501705
6	170319	31.61	1.4203803985993
6	170876	31.71	1.434684195354
6	171433	31.81	1.4464182907048
6	171990	31.91	1.4513407705138
6	172555	32.01	1.3970888876891
6	173112	32.11	1.2788466960821
6	173669	32.21	1.1057069889901
6	174226	32.31	0.88695269654835
6	174783	32.41	0.63191434325702
6	175340	32.51	0.3498381112415
6	175897	32.61	0.052459604304289
6	176454	32.71	-0.22644240298533
6	177011	32.81	-0.45523919049515
6	177568	32.91	-0.64293224614715
6	178133	33.01	-0.79690592524955
6	178690	33.11	-0.92321797112547
6	179247	33.21	-1.0268378432137
6	179804	33.31	-1.1118422291148
6	180361	33.41	-1.1815754325717
6	180918	33.51	-1.2387809474724
6	181475	33.61	-1.2857093943644
6	182032	33.71	-1.3242070659885
6	182589	33.81	-1.3557885654535
6	183146	33.91	-1.3816963948479
6	183711	34.01	-1.4029498386442
6	184268	34.11	-1.4203850651299
6	184825	34.21	-1.4346880235344
6	185382	34.31	-1.4464214311445
6	185939	34.41	-1.4513444000933
6	186496	34.51	-1.3971014498217
6	187053	34.61	-1.2788663607076
6	187610	34.71	-1.1057321274301
6	188167	34.81	-0.88698187454312
6	188724	34.91	-0.63194631176131
6	189289	35.01	-0.34987179555372
6	189846	35.11	-0.052493373000573
6	190403	35.21	0.22641470089155
6	190960	35.31	0.45521646513009
6	191517	35.41	0.64291360343205
6	192074	35.51	0.79689063173021
6	192631	35.61	0.92320542511359
6	193188	35.71	1.0268275511145
6	193745	35.81	1.1118337860083
6	194302	35.91	1.1815685062835
6	194867	36.01	1.2387752655023
6	195424	36.11	1.2857047331693
6	195981	36.21	1.3242032421843
6	196538	36.31	1.3557854286027
6	197095	36.41	1.3816938215371
6	197652	36.51	1.4029477276331
6	198209	36.61	1.4203833333653
6	198766	36.71	1.4346866028845
6	199323	36.81	1.4464202657166
6	199880	36.91	1.4513430531451
6	200445	37.01	1.397096787975
6	201002	37.11	1.2788590631018
6	201559	37.21	1.105722798475
6	202116	37.31	0.88697104649569
6	202673	37.41	0.63193444814758
6	203230	37.51	0.34985929519777
6	203787	37.61	0.052480841328872
6	204344	37.71	-0.22642498122849
6	204901	37.81	-0.4552248985874
6	205458	37.91	-0.64292052180548
6	206023	38.01	-0.79689630720523
6	206580	38.11	-0.92321008097898
6	207137	38.21	-1.0268313705467
6	207694	38.31	-1.1118369192744
6	208251	38.41	-1.1815710766527
6	208808	38.51	-1.2387773741011
6	209365	38.61	-1.2857064629564
6	209922	38.71	-1.3242046612127
6	210479	38.81	-1.3557865927005
6	211036	38.91	-1.3816947765022
6	211601	39.01	-1.4029485110377
6	212158	39.11	-1.4203839760292
6	212715	39.21	-1.4346871300937
6	213272	39.31	-1.4464206982126
6	213829	39.41	-1.4513435530041
6	214386	39.51	-1.3970985180023
6	214943	39.61	-1.278861771268
6	215500	39.71	-1.1057262604808
6	216057	39.81	-0.88697506482021
6	216614	39.91	-0.63193885077268
6	217179	40.01	-0.34986393411884
6	217736	40.11	-0.052485491870868
6	218293	40.21	0.22642116616325
6	218850	40.31	0.455221768906
6	219407	40.41	0.64291795437512
6	219964	40.51	0.79689420101801
6	220521	40.61	0.92320835317281
6	221078	40.71	1.0268299531432
6	221635	40.81	1.1118357565088
6	222192	40.91	1.1815701227796
6	222757	41.01	1.2387765915925
6	223314	41.11	1.2857058210251
6	223871	41.21	1.3242041346054
6	224428	41.31	1.3557861606998
6	224985	41.41	1.3816944221119
6	225542	41.51	1.4029482203135
6	226099	41.61	1.4203837375341
6	226656	41.71	1.434686934445
6	227213	41.81	1.4464205377131
6	227770	41.91	1.4513433675056
6	228335	42.01	1.3970978759843
6	228892	42.11	1.27886076626
6	229449	42.21	1.1057249757201
6	230006	42.31	0.88697357360843
6	230563	42.41	0.63193721694788
6	231120	42.51	0.34986221260453
6	231677	42.61	0.052483766043565
6	232234	42.71	-0.22642258194239
6	232791	42.81	-0.45522293033713
6	233348	42.91	-0.64291890715467
6	233913	43.01	-0.79689498262923
6	234470	43.11	-0.92320899436658
6	235027	43.21	-1.0268304791452
6	235584	43.31	-1.1118361880143
6	236141	43.41	-1.1815704767656
6	236698	43.51	-1.2387768819849
6	237255	43.61	-1.2857060592488
6	237812	43.71	-1.3242043300316
6	238369	43.81	-1.3557863210153
6	238926	43.91	-1.381694553627
6	239491	44.01	-1.4029483282016
6	240048	44.11	-1.4203838260407
6	240605	44.21	-1.4346870070497
6	241162	44.31	-1.4464205972743
6	241719	44.41	-1.451343436343
6	242276	44.51	-1.3970981142386
6	242833	44.61	-1.2788611392217
6	243390	44.71	-1.1057254524992
6	243947	44.81	-0.88697412700114
6	244504	44.91	-0.63193782326465
6	245069	45.01	-0.34986285146203
5	232	1.11	36.55
5	788	1.21	36.55
5	1344	1.31	36.55
5	1900	1.41	36.55
5	2456	1.51	36.55
5	3012	1.61	36.55
5	3568	1.71	36.55
5	4124	1.81	36.55
5	4680	1.91	36.55
5	5244	2.01	36.55
5	5800	2.11	36.55
5	6356	2.21	36.55
5	6912	2.31	36.55
5	7468	2.41	36.55
5	8024	2.51	36.55
5	8580	2.61	36.55
5	9136	2.71	36.55
5	9692	2.81	36.55
5	10248	2.91	36.55
5	10812	3.01	36.55
5	11368	3.11	36.55
5	11924	3.21	36.55
5	12480	3.31	36.55
5	13036	3.41	36.55
5	13592	3.51	36.55
5	14148	3.61	36.55
5	14704	3.71	36.55
5	15260	3.81	36.55
5	15816	3.91	36.55
5	16380	4.01	36.55
5	16936	4.11	36.55
5	17492	4.21	36.55
5	18048	4.31	36.55
5	18604	4.41	36.55
5	19160	4.51	36.55
5	19716	4.61	36.55
5	20272	4.71	36.55
5	20828	4.81	36.55
5	21384	4.91	36.55
5	21949	5.01	36.55
5	22506	5.11	36.55
5	23063	5.21	36.55
5	23620	5.31	36.55
5	24177	5.41	36.55
5	24734	5.51	36.55
5	25291	5.61	36.55
5	25848	5.71	36.55
5	26405	5.81	36.55
5	26962	5.91	36.55
5	27527	6.01	36.55
5	28084	6.11	36.55
5	28641	6.21	36.55
5	29198	6.31	36.55
5	29755	6.41	36.55
5	30312	6.51	36.55
5	30869	6.61	36.55
5	31426	6.71	36.55
5	31983	6.81	36.55
5	32540	6.91	36.55
5	33105	7.01	36.55
5	33662	7.11	36.55
5	34219	7.21	36.55
5	34776	7.31	36.55
5	35333	7.41	36.55
5	35890	7.51	36.55
5	36447	7.61	36.55
5	37004	7.71	36.55
5	37561	7.81	36.55
5	38118	7.91	36.55
5	38683	8.01	36.55
5	39240	8.11	36.55
5	39797	8.21	36.55
5	40354	8.31	36.55
5	40911	8.41	36.55
5	41468	8.51	36.55
5	42025	8.61	36.55
5	42582	8.71	36.55
5	43139	8.81	36.55
5	43696	8.91	36.55
5	44261	9.01	36.55
5	44818	9.11	36.55
5	45375	9.21	36.55
5	45932	9.31	36.55
5	46489	9.41	36.55
5	47046	9.51	36.55
5	47603	9.61	36.55
5	48160	9.71	36.55
5	48717	9.81	36.55
5	49274	9.91	36.55
5	49839	10.01	36.55
5	50396	10.11	36.55
5	50953	10.21	36.55
5	51510	10.31	36.55
5	52067	10.41	36.55
5	52624	10.51	36.55
5	53181	10.61	36.55
5	53738	10.71	36.55
5	54295	10.81	36.55
5	54852	10.91	36.55
5	55417	11.01	36.55
5	55974	11.11	36.55
5	56531	11.21	36.55
5	57088	11.31	36.55
5	57645	11.41	36.55
5	58202	11.51	36.55
5	58759	11.61	36.55
5	59316	11.71	36.55
5	59873	11.81	36.55
5	60430	11.91	36.55
5	60995	12.01	36.55
5	61552	12.11	36.55
5	62109	12.21	36.55
5	62666	12.31	36.55
5	63223	12.41	36.55
5	63780	12.51	36.55
5	64337	12.61	36.55
5	64894	12.71	36.55
5	65451	12.81	36.55
5	66008	12.91	36.55
5	66573	13.01	36.55
5	67130	13.11	36.55
5	67687	13.21	36.55
5	68244	13.31	36.55
5	68801	13.41	36.55
5	69358	13.51	36.55
5	69915	13.61	36.55
5	70472	13.71	36.55
5	71029	13.81	36.55
5	71586	13.91	36.55
5	72151	14.01	36.55
5	72708	14.11	36.55
5	73265	14.21	36.55
5	73822	14.31	36.55
5	74379	14.41	36.55
5	74936	14.51	36.55
5	75493	14.61	36.55
5	76050	14.71	36.55
5	76607	14.81	36.55
5	77164	14.91	36.55
5	77729	15.01	36.55
5	78286	15.11	36.55
5	78843	15.21	36.55
5	79400	15.31	36.55
5	79957	15.41	36.55
5	80514	15.51	36.55
5	81071	15.61	36.55
5	81628	15.71	36.55
5	82185	15.81	36.55
5	82742	15.91	36.55
5	83307	16.01	36.55
5	83864	16.11	36.55
5	84421	16.21	36.55
5	84978	16.31	36.55
5	85535	16.41	36.55
5	86092	16.51	36.55
5	86649	16.61	36.55
5	87206	16.71	36.55
5	87763	16.81	36.55
5	88320	16.91	36.55
5	88885	17.01	36.55
5	89442	17.11	36.55
5	89999	17.21	36.55
5	90556	17.31	36.55
5	91113	17.41	36.55
5	91670	17.51	36.55
5	92227	17.61	36.55
5	92784	17.71	36.55
5	93341	17.81	36.55
5	93898	17.91	36.55
5	94463	18.01	36.55
5	95020	18.11	36.55
5	95577	18.21	36.55
5	96134	18.31	36.55
5	96691	18.41	36.55
5	97248	18.51	36.55
5	97805	18.61	36.55
5	98362	18.71	36.55
5	98919	18.81	36.55
5	99476	18.91	36.55
5	100041	19.01	36.55
5	100598	19.11	36.55
5	101155	19.21	36.55
5	101712	19.31	36.55
5	102269	19.41	36.55
5	102826	19.51	36.55
5	103383	19.61	36.55
5	103940	19.71	36.55
5	104497	19.81	36.55
5	105054	19.91	36.55
5	105619	20.01	36.55
5	106176	20.11	36.55
5	106733	20.21	36.55
5	107290	20.31	36.55
5	107847	20.41	36.55
5	108404	20.51	36.55
5	108961	20.61	36.55
5	109518	20.71	36.55
5	110075	20.81	36.55
5	110632	20.91	36.55
5	111197	21.01	36.55
5	111754	21.11	36.55
5	112311	21.21	36.55
5	112868	21.31	36.55
5	113425	21.41	36.55
5	113982	21.51	36.55
5	114539	21.61	36.55
5	115096	21.71	36.55
5	115653	21.81	36.55
5	116210	21.91	36.55
5	116775	22.01	36.55
5	117332	22.11	36.55
5	117889	22.21	36.55
5	118446	22.31	36.55
5	119003	22.41	36.55
5	119560	22.51	36.55
5	120117	22.61	36.55
5	120674	22.71	36.55
5	121231	22.81	36.55
5	121788	22.91	36.55
5	122353	23.01	36.55
5	122910	23.11	36.55
5	123467	23.21	36.55
5	124024	23.31	36.55
5	124581	23.41	36.55
5	125138	23.51	36.55
5	125695	23.61	36.55
5	126252	23.71	36.55
5	126809	23.81	36.55
5	127366	23.91	36.55
5	127931	24.01	36.55
5	128488	24.11	36.55
5	129045	24.21	36.55
5	129602	24.31	36.55
5	130159	24.41	36.55
5	130716	24.51	36.55
5	131273	24.61	36.55
5	131830	24.71	36.55
5	132387	24.81	36.55
5	132944	24.91	36.55
5	133509	25.01	36.55
5	134066	25.11	36.55
5	134623	25.21	36.55
5	135180	25.31	36.55
5	135737	25.41	36.55
5	136294	25.51	36.55
5	136851	25.61	36.55
5	137408	25.71	36.55
5	137965	25.81	36.55
5	138522	25.91	36.55
5	139087	26.01	36.55
5	139644	26.11	36.55
5	140201	26.21	36.55
5	140758	26.31	36.55
5	141315	26.41	36.55
5	141872	26.51	36.55
5	142429	26.61	36.55
5	142986	26.71	36.55
5	143543	26.81	36.55
5	144100	26.91	36.55
5	144665	27.01	36.55
5	145222	27.11	36.55
5	145779	27.21	36.55
5	146336	27.31	36.55
5	146893	27.41	36.55
5	147450	27.51	36.55
5	148007	27.61	36.55
5	148564	27.71	36.55
5	149121	27.81	36.55
5	149678	27.91	36.55
5	150243	28.01	36.55
5	150800	28.11	36.55
5	151357	28.21	36.55
5	151914	28.31	36.55
5	152471	28.41	36.55
5	153028	28.51	36.55
5	153585	28.61	36.55
5	154142	28.71	36.55
5	154699	28.81	36.55
5	155256	28.91	36.55
5	155821	29.01	36.55
5	156378	29.11	36.55
5	156935	29.21	36.55
5	157492	29.31	36.55
5	158049	29.41	36.55
5	158606	29.51	36.55
5	159163	29.61	36.55
5	159720	29.71	36.55
5	160277	29.81	36.55
5	160834	29.91	36.55
5	161399	30.01	36.55
5	161956	30.11	36.55
5	162513	30.21	36.55
5	163070	30.31	36.55
5	163627	30.41	36.55
5	164184	30.51	36.55
5	164741	30.61	36.55
5	165298	30.71	36.55
5	165855	30.81	36.55
5	166412	30.91	36.55
5	166977	31.01	36.55
5	167534	31.11	36.55
5	168091	31.21	36.55
5	168648	31.31	36.55
5	169205	31.41	36.55
5	169762	31.51	36.55
5	170319	31.61	36.55
5	170876	31.71	36.55
5	171433	31.81	36.55
5	171990	31.91	36.55
5	172555	32.01	36.55
5	173112	32.11	36.55
5	173669	32.21	36.55
5	174226	32.31	36.55
5	174783	32.41	36.55
5	175340	32.51	36.55
5	175897	32.61	36.55
5	176454	32.71	36.55
5	177011	32.81	36.55
5	177568	32.91	36.55
5	178133	33.01	36.55
5	178690	33.11	36.55
5	179247	33.21	36.55
5	179804	33.31	36.55
5	180361	33.41	36.55
5	180918	33.51	36.55
5	181475	33.61	36.55
5	182032	33.71	36.55
5	182589	33.81	36.55
5	183146	33.91	36.55
5	183711	34.01	36.55
5	184268	34.11	36.55
5	184825	34.21	36.55
5	185382	34.31	36.55
5	185939	34.41	36.55
5	186496	34.51	36.55
5	187053	34.61	36.55
5	187610	34.71	36.55
5	188167	34.81	36.55
5	188724	34.91	36.55
5	189289	35.01	36.55
5	189846	35.11	36.55
5	190403	35.21	36.55
5	190960	35.31	36.55
5	191517	35.41	36.55
5	192074	35.51	36.55
5	192631	35.61	36.55
5	193188	35.71	36.55
5	193745	35.81	36.55
5	194302	35.91	36.55
5	194867	36.01	36.55
5	195424	36.11	36.55
5	195981	36.21	36.55
5	196538	36.31	36.55
5	197095	36.41	36.55
5	197652	36.51	36.55
5	198209	36.61	36.55
5	198766	36.71	36.55
5	199323	36.81	36.55
5	199880	36.91	36.55
5	200445	37.01	36.55
5	201002	37.11	36.55
5	201559	37.21	36.55
5	202116	37.31	36.55
5	202673	37.41	36.55
5	203230	37.51	36.55
5	203787	37.61	36.55
5	204344	37.71	36.55
5	204901	37.81	36.55
5	205458	37.91	36.55
5	206023	38.01	36.55
5	206580	38.11	36.55
5	207137	38.21	36.55
5	207694	38.31	36.55
5	208251	38.41	36.55
5	208808	38.51	36.55
5	209365	38.61	36.55
5	209922	38.71	36.55
5	210479	38.81	36.55
5	211036	38.91	36.55
5	211601	39.01	36.55
5	212158	39.11	36.55
5	212715	39.21	36.55
5	213272	39.31	36.55
5	213829	39.41	36.55
5	214386	39.51	36.55
5	214943	39.61	36.55
5	215500	39.71	36.55
5	216057	39.81	36.55
5	216614	39.91	36.55
5	217179	40.01	36.55
5	217736	40.11	36.55
5	218293	40.21	36.55
5	218850	40.31	36.55
5	219407	40.41	36.55
5	219964	40.51	36.55
5	220521	40.61	36.55
5	221078	40.71	36.55
5	221635	40.81	36.55
5	222192	40.91	36.55
5	222757	41.01	36.55
5	223314	41.11	36.55
5	223871	41.21	36.55
5	224428	41.31	36.55
5	224985	41.41	36.55
5	225542	41.51	36.55
5	226099	41.61	36.55
5	226656	41.71	36.55
5	227213	41.81	36.55
5	227770	41.91	36.55
5	228335	42.01	36.55
5	228892	42.11	36.55
5	229449	42.21	36.55
5	230006	42.31	36.55
5	230563	42.41	36.55
5	231120	42.51	36.55
5	231677	42.61	36.55
5	232234	42.71	36.55
5	232791	42.81	36.55
5	233348	42.91	36.55
5	233913	43.01	36.55
5	234470	43.11	36.55
5	235027	43.21	36.55
5	235584	43.31	36.55
5	236141	43.41	36.55
5	236698	43.51	36.55
5	237255	43.61	36.55
5	237812	43.71	36.55
5	238369	43.81	36.55
5	238926	43.91	36.55
5	239491	44.01	36.55
5	240048	44.11	36.55
5	240605	44.21	36.55
5	241162	44.31	36.55
5	241719	44.41	36.55
5	242276	44.51	36.55
5	242833	44.61	36.55
5	243390	44.71	36.55
5	243947	44.81	36.55
5	244504	44.91	36.55
5	245069	45.01	36.55
4	232	1.11	207.05996208151
4	788	1.21	211.22662887269
4	1344	1.31	215.3932956598
4	1900	1.41	219.55996244141
4	2456	1.51	223.72662921644
4	3012	1.61	227.89329598413
4	3568	1.71	232.05996274399
4	4124	1.81	236.22662949576
4	4680	1.91	240.39329623935
4	5244	2.01	244.55996297487
4	5800	2.11	248.72662970252
4	6356	2.21	252.89329642263
4	6912	2.31	257.05996313559
4	7468	2.41	261.22662984186
4	8024	2.51	265.39329654192
4	8580	2.61	269.5599632363
4	9136	2.71	273.72662992552
4	9692	2.81	277.8932966101
4	10248	2.91	282.05996329055
4	10812	3.01	286.22662996736
4	11368	3.11	290.39329664102
4	11924	3.21	294.55996331195
4	12480	3.31	298.72662998058
4	13036	3.41	302.89329664728
4	13592	3.51	307.0599633124
4	14148	3.61	311.22662997625
4	14704	3.71	315.39329663911
4	15260	3.81	319.55996330122
4	15816	3.91	323.7266299628
4	16380	4.01	327.89329662404
4	16936	4.11	332.05996328509
4	17492	4.21	336.2266299461
4	18048	4.31	340.39329660716
4	18604	4.41	344.55996326838
4	19160	4.51	348.72662992981
4	19716	4.61	352.89329659152
4	20272	4.71	357.05996325354
4	20828	4.81	361.22662991591
4	21384	4.91	365.39329657863
4	21949	5.01	369.55996324172
4	22506	5.11	373.72663127045
4	23063	5.21	377.89352580125
4	23620	5.31	382.06142042577
4	24177	5.41	386.23153977165
4	24734	5.51	390.40543382258
4	25291	5.61	394.58483744096
4	25848	5.71	398.77143611127
4	26405	5.81	402.96663187388
4	26962	5.91	407.17157502207
4	27527	6.01	411.38720919693
4	28084	6.11	415.61430851286
4	28641	6.21	419.85350801327
4	29198	6.31	424.10532865494
4	29755	6.41	428.3701978039
4	30312	6.51	432.64846601746
4	30869	6.61	436.94039104551
4	31426	6.71	441.24592645514
4	31983	6.81	445.56454572978
4	32540	6.91	449.89526009311
4	33105	7.01	454.23665483232
4	33662	7.11	458.58693283292
4	34219	7.21	462.94396416895
4	34776	7.31	467.30534058105
4	35333	7.41	471.66843413228
4	35890	7.51	476.03053189538
4	36447	7.61	480.38913606399
4	37004	7.71	484.74217949279
4	37561	7.81	489.08796640265
4	38118	7.91	493.42510566403
4	38683	8.01	497.75245606617
4	39240	8.11	502.06908141879
4	39797	8.21	506.37421371975
4	40354	8.31	510.66722293983
4	40911	8.41	514.94759223562
4	41468	8.51	519.2148976155
4	42025	8.61	523.46879125868
4	42582	8.71	527.70898783094
4	43139	8.81	531.93525325888
4	43696	8.91	536.14739552074
4	44261	9.01	540.34525709182
4	44818	9.11	544.528708747
4	45375	9.21	548.69764447667
4	45932	9.31	552.85197731602
4	46489	9.41	556.99163592363
4	47046	9.51	561.11656403747
4	47603	9.61	565.22695695794
4	48160	9.71	569.32367600634
4	48717	9.81	573.40821294509
4	49274	9.91	577.48258488722
4	49839	10.01	581.54922967224
4	50396	10.11	585.61090301699
4	50953	10.21	589.67057768073
4	51510	10.31	593.73118187738
4	52067	10.41	597.79523691607
4	52624	10.51	601.86481762268
4	53181	10.61	605.94162607707
4	53738	10.71	610.02705857756
4	54295	10.81	614.12226057512
4	54852	10.91	618.22817173848
4	55417	11.01	622.34556292331
4	55974	11.11	626.47506649973
4	56531	11.21	630.6172012315
4	57088	11.31	634.77239268559
4	57645	11.41	638.94098997514
4	58202	11.51	643.12327949452
4	58759	11.61	647.31949618687
4	59316	11.71	651.52983278738
4	59873	11.81	655.75444740605
4	60430	11.91	659.99345494874
4	60995	12.01	664.24665038568
4	61552	12.11	668.51318840089
4	62109	12.21	672.79163989304
4	62666	12.31	677.0800789715
4	63223	12.41	681.37617174753
4	63780	12.51	685.67726555753
4	64337	12.61	689.9804781933
4	64894	12.71	694.28292090571
4	65451	12.81	698.58204792031
4	66008	12.91	702.87576013237
4	66573	13.01	707.16233554486
4	67130	13.11	711.44036152046
4	67687	13.21	715.70867920453
4	68244	13.31	719.96633793265
4	68801	13.41	724.21255782888
4	69358	13.51	728.44669912332
4	69915	13.61	732.6682369818
4	70472	13.71	736.87674085753
4	71029	13.81	741.07185755216
4	71586	13.91	745.25329732003
4	72151	14.01	749.42082246879
4	72708	14.11	753.57423800792
4	73265	14.21	757.71338397727
4	73822	14.31	761.83812915381
4	74379	14.41	765.94836667
4	74936	14.51	770.0441630637
4	75493	14.61	774.12613364093
4	76050	14.71	778.1955221363
4	76607	14.81	782.25411436717
4	77164	14.91	786.30414381773
4	77729	15.01	790.34819709007
4	78286	15.11	794.38912010258
4	78843	15.21	798.429855729
4	79400	15.31	802.47311312256
4	79957	15.41	806.52113401901
4	80514	15.51	810.57575742245
4	81071	15.61	814.63849195678
4	81628	15.71	818.71057521904
4	82185	15.81	822.79302246988
4	82742	15.91	826.88666657662
4	83307	16.01	830.99219078058
4	83864	16.11	835.11015557758
4	84421	16.21	839.24102076944
4	84978	16.31	843.38516355379
4	85535	16.41	847.54289336407
4	86092	16.51	851.71446404348
4	86649	16.61	855.90008383184
4	87206	16.71	860.09992355835
4	87763	16.81	864.31412336245
4	88320	16.91	868.54279719282
4	88885	17.01	872.78584854546
4	89442	17.11	877.04257905013
4	89999	17.21	881.31167504557
4	90556	17.31	885.59129723495
4	91113	17.41	889.87917310622
4	91670	17.51	894.17268958482
4	92227	17.61	898.46898520333
4	92784	17.71	902.76513431668
4	93341	17.81	907.05848466068
4	93898	17.91	911.34684426353
4	94463	18.01	915.62841494484
4	95020	18.11	919.9017215704
4	95577	18.21	924.16555401639
4	96134	18.31	928.41891955977
4	96691	18.41	932.66100382189
4	97248	18.51	936.8911387286
4	97805	18.61	941.10877622641
4	98362	18.71	945.31346672058
4	98919	18.81	949.50484138682
4	99476	18.91	953.68259766076
4	100041	19.01	957.84648733422
4	100598	19.11	961.99630679006
4	101155	19.21	966.13188899129
4	101712	19.31	970.2530969094
4	102269	19.41	974.35981905201
4	102826	19.51	978.45214058505
4	103383	19.61	982.53072904549
4	103940	19.71	986.5968721675
4	104497	19.81	990.6523894108
4	105054	19.91	994.69953880203
4	105619	20.01	998.74092358044
4	106176	20.11	1002.7793994243
4	106733	20.21	1006.8178983255
4	107290	20.31	1010.8590935803
4	107847	20.41	1014.9051955596
4	108404	20.51	1018.9580175375
4	108961	20.61	1023.0190470304
4	109518	20.71	1027.0895043197
4	110075	20.81	1031.1703904613
4	110632	20.91	1035.2625266696
4	111197	21.01	1039.3665866266
4	111754	21.11	1043.483122986
4	112311	21.21	1047.6125891164
4	112868	21.31	1051.755356938
4	113425	21.41	1055.9117315548
4	113982	21.51	1060.0819632584
4	114539	21.61	1064.2662573752
4	115096	21.71	1068.4647823442
4	115653	21.81	1072.6776763441
4	116210	21.91	1076.9050517809
4	116775	22.01	1081.1468193625
4	117332	22.11	1085.402300129
4	117889	22.21	1089.6701967204
4	118446	22.31	1093.9486823094
4	119003	22.41	1098.2354934871
4	119560	22.51	1102.5280233571
4	120117	22.61	1106.8234140847
4	120674	22.71	1111.1187360228
4	121231	22.81	1115.4113236661
4	121788	22.91	1119.69897346
4	122353	23.01	1123.9798777219
4	122910	23.11	1128.2525535227
4	123467	23.21	1132.5157843438
4	124024	23.31	1136.7685722165
4	124581	23.41	1141.0100984586
4	125138	23.51	1145.2396914658
4	125695	23.61	1149.4568002885
4	126252	23.71	1153.6609729561
4	126809	23.81	1157.8518386955
4	127366	23.91	1162.0290933433
4	127931	24.01	1166.1924873798
4	128488	24.11	1170.341816112
4	129045	24.21	1174.4769116201
4	129602	24.31	1178.5976361515
4	130159	24.41	1182.7038776387
4	130716	24.51	1186.7957238423
4	131273	24.61	1190.8738494828
4	131830	24.71	1194.9395483482
4	132387	24.81	1198.9946445315
4	132944	24.91	1203.0413994439
4	133509	25.01	1207.0824186247
4	134066	25.11	1211.1205591081
4	134623	25.21	1215.1587514112
4	135180	25.31	1219.1996639302
4	135737	25.41	1223.2455027491
4	136294	25.51	1227.2980776253
4	136851	25.61	1231.3588731901
4	137408	25.71	1235.4291073585
4	137965	25.81	1239.5097792446
4	138522	25.91	1243.6017084702
4	139087	26.01	1247.7055674107
4	139644	26.11	1251.8219076481
4	140201	26.21	1255.9511816715
4	140758	26.31	1260.09376068
4	141315	26.41	1264.2499491857
4	141872	26.51	1268.4199969948
4	142429	26.61	1272.6041090355
4	142986	26.71	1276.8024534202
4	143543	26.81	1281.0151680595
4	144100	26.91	1285.2423651466
4	144665	27.01	1289.4839563525
4	145222	27.11	1293.7392653834
4	145779	27.21	1298.0069971259
4	146336	27.31	1302.2853264722
4	146893	27.41	1306.5719912697
4	147450	27.51	1310.8643854754
4	148007	27.61	1315.1596517582
4	148564	27.71	1319.4548599238
4	149121	27.81	1323.7473426488
4	149678	27.91	1328.0348947878
4	150243	28.01	1332.3157073535
4	150800	28.11	1336.5882963461
4	151357	28.21	1340.8514443691
4	151914	28.31	1345.1041527332
4	152471	28.41	1349.3456021653
4	153028	28.51	1353.5751205762
4	153585	28.61	1357.7921566187
4	154142	28.71	1361.996257996
4	154699	28.81	1366.1870536672
4	155256	28.91	1370.3642392494
4	155821	29.01	1374.5275650428
4	156378	29.11	1378.6768262066
4	156935	29.21	1382.8118546998
4	157492	29.31	1386.9325126704
4	158049	29.41	1391.0386879719
4	158606	29.51	1395.1304687223
4	159163	29.61	1399.2085306316
4	159720	29.71	1403.2741683214
4	160277	29.81	1407.3292065227
4	160834	29.91	1411.3759071132
4	161399	30.01	1415.4168759488
4	161956	30.11	1419.4549702504
4	162513	30.21	1423.4931203324
4	163070	30.31	1427.5339939159
4	163627	30.41	1431.5797964949
4	164184	30.51	1435.6323373424
4	164741	30.61	1439.6931006926
4	165298	30.71	1443.7633041343
4	165855	30.81	1447.8439465145
4	166412	30.91	1451.9358472358
4	166977	31.01	1456.0396784934
4	167534	31.11	1460.1559917218
4	168091	31.21	1464.2852392892
4	168648	31.31	1468.4277922951
4	169205	31.41	1472.5839551704
4	169762	31.51	1476.7539776544
4	170319	31.61	1480.9380646202
4	170876	31.71	1485.1363841354
4	171433	31.81	1489.3490740738
4	171990	31.91	1493.5762465992
4	172555	32.01	1497.8178135152
4	173112	32.11	1502.0730988953
4	173669	32.21	1506.3408079353
4	174226	32.31	1510.6191157643
4	174783	32.41	1514.9057604028
4	175340	32.51	1519.1981359252
4	175897	32.61	1523.4933850699
4	176454	32.71	1527.788577567
4	177011	32.81	1532.081045843
4	177568	32.91	1536.3685845333
4	178133	33.01	1540.6493844708
4	178690	33.11	1544.9219615084
4	179247	33.21	1549.1850981287
4	179804	33.31	1553.437795543
4	180361	33.41	1557.6792343971
4	180918	33.51	1561.9087425348
4	181475	33.61	1566.1257685542
4	182032	33.71	1570.3298601136
4	182589	33.81	1574.5206461351
4	183146	33.91	1578.6978222058
4	183711	34.01	1582.861138601
4	184268	34.11	1587.0103904594
4	184825	34.21	1591.1454097235
4	185382	34.31	1595.2660585275
4	185939	34.41	1599.3722247141
4	186496	34.51	1603.4639964504
4	187053	34.61	1607.5420495828
4	187610	34.71	1611.6076788476
4	188167	34.81	1615.6627090638
4	188724	34.91	1619.7094021732
4	189289	35.01	1623.7503640754
4	189846	35.11	1627.788452017
4	190403	35.21	1631.8265962843
4	190960	35.31	1635.8674645058
4	191517	35.41	1639.9132620939
4	192074	35.51	1643.9657982551
4	192631	35.61	1648.0265571687
4	193188	35.71	1652.0967563788
4	193745	35.81	1656.1773946956
4	194302	35.91	1660.2692914913
4	194867	36.01	1664.3731189365
4	195424	36.11	1668.4894284453
4	195981	36.21	1672.6186723693
4	196538	36.31	1676.7612217942
4	197095	36.41	1680.9173811397
4	197652	36.51	1685.0874001359
4	198209	36.61	1689.2714836485
4	198766	36.71	1693.4697997388
4	199323	36.81	1697.6824862754
4	199880	36.91	1701.9096554182
4	200445	37.01	1706.1512189891
4	201002	37.11	1710.406501112
4	201559	37.21	1714.6742070255
4	202116	37.31	1718.9525118912
4	202673	37.41	1723.2391537534
4	203230	37.51	1727.5315267029
4	203787	37.61	1731.8267734873
4	204344	37.71	1736.1219638266
4	204901	37.81	1740.4144301127
4	205458	37.91	1744.7019669508
4	206023	38.01	1748.9827651492
4	206580	38.11	1753.2553405404
4	207137	38.21	1757.5184755903
4	207694	38.31	1761.7711714967
4	208251	38.41	1766.012608894
4	208808	38.51	1770.2421156169
4	209365	38.61	1774.459140256
4	209922	38.71	1778.6632304632
4	210479	38.81	1782.8540151558
4	211036	38.91	1787.0311899166
4	211601	39.01	1791.1945050175
4	212158	39.11	1795.3437555944
4	212715	39.21	1799.4787735875
4	213272	39.31	1803.5994211291
4	213829	39.41	1807.7055860604
4	214386	39.51	1811.7973565553
4	214943	39.61	1815.875408479
4	215500	39.71	1819.9410365835
4	216057	39.81	1823.9960657
4	216614	39.91	1828.0427577791
4	217179	40.01	1832.0837187265
4	217736	40.11	1836.1218057922
4	218293	40.21	1840.1599492588
4	218850	40.31	1844.2008167418
4	219407	40.41	1848.2466136425
4	219964	40.51	1852.2991491583
4	220521	40.61	1856.3599074609
4	221078	40.71	1860.4301060883
4	221635	40.81	1864.5107438454
4	222192	40.91	1868.6026401005
4	222757	41.01	1872.7064670207
4	223314	41.11	1876.8227760173
4	223871	41.21	1880.9520194394
4	224428	41.31	1885.0945683712
4	224985	41.41	1889.2507272306
4	225542	41.51	1893.4207457465
4	226099	41.61	1897.6048287835
4	226656	41.71	1901.8031444021
4	227213	41.81	1906.0158304703
4	227770	41.91	1910.2429991472
4	228335	42.01	1914.4845622574
4	228892	42.11	1918.7398439318
4	229449	42.21	1923.0075494147
4	230006	42.31	1927.2858538723
4	230563	42.41	1931.5724953521
4	231120	42.51	1935.8648679473
4	231677	42.61	1940.1601144067
4	232234	42.71	1944.4553044488
4	232791	42.81	1948.7477704608
4	233348	42.91	1953.0353070439
4	233913	43.01	1957.3161050028
4	234470	43.11	1961.5886801673
4	235027	43.21	1965.8518150009
4	235584	43.31	1970.1045106996
4	236141	43.41	1974.3459478962
4	236698	43.51	1978.5754544243
4	237255	43.61	1982.7924788733
4	237812	43.71	1986.9965688943
4	238369	43.81	1991.1873534039
4	238926	43.91	1995.3645279843
4	239491	44.01	1999.5278429069
4	240048	44.11	2003.6770933074
4	240605	44.21	2007.8121111254
4	241162	44.31	2011.9327584932
4	241719	44.41	2016.0389232516
4	242276	44.51	2020.1306935756
4	242833	44.61	2024.2087453327
4	243390	44.71	2028.2743732775
4	243947	44.81	2032.3294022426
4	244504	44.91	2036.3760941798
4	245069	45.01	2040.4170549956
3	232	1.11	41.666667929418
3	788	1.21	41.666667899951
3	1344	1.31	41.666667853658
3	1900	1.41	41.666667794392
3	2456	1.51	41.666667725546
3	3012	1.61	41.666667650077
3	3568	1.71	41.666667570527
3	4124	1.81	41.666667489057
3	4680	1.91	41.666667407473
3	5244	2.01	41.666667327259
3	5800	2.11	41.666667249607
3	6356	2.21	41.66666717545
3	6912	2.31	41.66666710549
3	7468	2.41	41.666667040228
3	8024	2.51	41.66666697999
3	8580	2.61	41.666666924954
3	9136	2.71	41.666666875173
3	9692	2.81	41.666666830595
3	10248	2.91	41.666666791086
3	10812	3.01	41.666666756443
3	11368	3.11	41.666666726414
3	11924	3.21	41.666666700707
3	12480	3.31	41.666666679009
3	13036	3.41	41.666666660987
3	13592	3.51	41.666666646305
3	14148	3.61	41.666666634625
3	14704	3.71	41.666666625619
3	15260	3.81	41.666666618967
3	15816	3.91	41.666666614365
3	16380	4.01	41.666666611529
3	16936	4.11	41.66666661019
3	17492	4.21	41.666666610106
3	18048	4.31	41.66666661105
3	18604	4.41	41.666666612823
3	19160	4.51	41.666666615243
3	19716	4.61	41.666666618151
3	20272	4.71	41.666666621406
3	20828	4.81	41.666666624888
3	21384	4.91	41.666666628494
3	21949	5.01	41.666666632137
3	22506	5.11	41.666734900033
3	23063	5.21	41.670948476405
3	23620	5.31	41.684664742913
3	24177	5.41	41.711945167374
3	24734	5.51	41.755610823567
3	25291	5.61	41.816952665848
3	25848	5.71	41.894216596382
3	26405	5.81	41.984547685456
3	26962	5.91	42.085598395823
3	27527	6.01	42.195442929292
3	28084	6.11	42.312501460593
3	28641	6.21	42.43547798275
3	29198	6.31	42.563309318645
3	29755	6.41	42.695123292736
3	30312	6.51	42.830202833657
3	30869	6.61	42.967277868462
3	31426	6.71	43.102240784882
3	31983	6.81	43.23027401884
3	32540	6.91	43.346870620625
3	33105	7.01	43.447913783684
3	33662	7.11	43.529744939715
3	34219	7.21	43.589220237998
3	34776	7.31	43.623755328609
3	35333	7.41	43.631381416411
3	35890	7.51	43.612092454521
3	36447	7.61	43.56932103241
3	37004	7.71	43.507285813978
3	37561	7.81	43.429447572987
3	38118	7.91	43.338645349306
3	38683	8.01	43.237208144466
3	39240	8.11	43.127046550912
3	39797	8.21	43.00972791991
3	40354	8.31	42.886538025405
3	40911	8.41	42.758531649867
3	41468	8.51	42.626574082303
3	42025	8.61	42.491375161077
3	42582	8.71	42.353517200886
3	43139	8.81	42.2134779026
3	43696	8.91	42.071649147316
3	44261	9.01	41.928352414027
3	44818	9.11	41.783851427477
3	45375	9.21	41.638362533812
3	45932	9.31	41.492063212224
3	46489	9.41	41.345099057468
3	47046	9.51	41.197687195957
3	47603	9.61	41.054345829873
3	48160	9.71	40.92197732765
3	48717	9.81	40.806518415565
3	49274	9.91	40.712854985186
3	49839	10.01	40.644830941643
3	50396	10.11	40.605270576133
3	50953	10.21	40.595961789979
3	51510	10.31	40.614765090574
3	52067	10.41	40.657138101268
3	52624	10.51	40.71884648357
3	53181	10.61	40.796416605098
3	53738	10.71	40.886998877433
3	54295	10.81	40.988255645561
3	54852	10.91	41.098269218164
3	55417	11.01	41.215466420431
3	55974	11.11	41.33855670108
3	56531	11.21	41.46648135856
3	57088	11.31	41.598371888854
3	57645	11.41	41.733515816169
3	58202	11.51	41.8713286622
3	58759	11.61	42.01133095116
3	59316	11.71	42.153129345907
3	59873	11.81	42.296401172981
3	60430	11.91	42.440475080365
3	60995	12.01	42.58031618601
3	61552	12.11	42.709536275545
3	62109	12.21	42.822598150946
3	62666	12.31	42.914842923842
3	63223	12.41	42.98250305941
3	63780	12.51	43.022702120469
3	64337	12.61	43.033484343958
3	64894	12.71	43.016216261811
3	65451	12.81	42.975102664961
3	66008	12.91	42.914427440664
3	66573	13.01	42.837704868549
3	67130	13.11	42.747817881934
3	67687	13.21	42.647131490264
3	68244	13.31	42.537585825019
3	68801	13.41	42.420772469757
3	69358	13.51	42.297997077347
3	69915	13.61	42.170330737898
3	70472	13.71	42.038652118361
3	71029	13.81	41.903682031675
3	71586	13.91	41.766011795509
3	72151	14.01	41.626126496309
3	72708	14.11	41.484424073913
3	73265	14.21	41.341230977594
3	73822	14.31	41.196815009456
3	74379	14.41	41.051434913329
3	74936	14.51	40.908219760552
3	75493	14.61	40.773448085166
3	76050	14.71	40.653147856182
3	76607	14.81	40.552410818743
3	77164	14.91	40.47538209096
3	77729	15.01	40.425263577507
3	78286	15.11	40.404308597451
3	78843	15.21	40.412557746568
3	79400	15.31	40.44627267704
3	79957	15.41	40.500878417952
3	80514	15.51	40.572621899691
3	81071	15.61	40.658424297982
3	81628	15.71	40.755759904564
3	82185	15.81	40.862556758959
3	82742	15.91	40.977115131913
3	83307	16.01	41.098040653421
3	83864	16.11	41.224189454421
3	84421	16.21	41.354623163871
3	84978	16.31	41.488571990683
3	85535	16.41	41.625404438048
3	86092	16.51	41.76460245863
3	86649	16.61	41.905741073179
3	87206	16.71	42.04847165069
3	87763	16.81	42.19250819231
3	88320	16.91	42.337565506681
3	88885	17.01	42.4798603368
3	89442	17.11	42.612895096878
3	89999	17.21	42.730819673225
3	90556	17.31	42.828699680314
3	91113	17.41	42.90252772365
3	91670	17.51	42.949221043622
3	92227	17.61	42.966635531731
3	92784	17.71	42.955239679248
3	93341	17.81	42.91894335602
3	93898	17.91	42.862219973949
3	94463	18.01	42.788739288885
3	95020	18.11	42.7015117788
3	95577	18.21	42.603007084181
3	96134	18.31	42.495251170402
3	96691	18.41	42.379906034713
3	97248	18.51	42.258335093733
3	97805	18.61	42.131656823968
3	98362	18.71	42.000788765715
3	98919	18.81	41.866483621601
3	99476	18.91	41.729358869944
3	100041	19.01	41.589921058033
3	100598	19.11	41.448585731074
3	101155	19.21	41.305693780873
3	101712	19.31	41.161524857441
3	102269	19.41	41.016354307546
3	102826	19.51	40.873722785233
3	103383	19.61	40.740048622954
3	103940	19.71	40.621247784992
3	104497	19.81	40.522312925574
3	105054	19.91	40.447302443002
3	105619	20.01	40.399343226154
3	106176	20.11	40.380619836989
3	106733	20.21	40.390852261269
3	107290	20.31	40.42619416815
3	107847	20.41	40.482134596392
3	108404	20.51	40.554972986614
3	108961	20.61	40.641673591217
3	109518	20.71	40.73974603982
3	110075	20.81	40.847147361314
3	110632	20.91	40.962201607825
3	111197	21.01	41.083533918363
3	111754	21.11	41.210016428051
3	112311	21.21	41.340723894856
3	112868	21.31	41.47489729805
3	113425	21.41	41.611913976267
3	113982	21.51	41.751263130315
3	114539	21.61	41.892525726947
3	115096	21.71	42.035358012948
3	115653	21.81	42.179477990955
3	116210	21.91	42.324606891881
3	116775	22.01	42.467114711865
3	117332	22.11	42.600552801533
3	117889	22.21	42.71902961828
3	118446	22.31	42.817574119593
3	119003	22.41	42.892146826113
3	119560	22.51	42.939637219565
3	120117	22.61	42.957875746063
3	120674	22.71	42.947212316072
3	121231	22.81	42.911516834389
3	121788	22.91	42.855286351658
3	122353	23.01	42.78221001573
3	122910	23.11	42.695314212772
3	123467	23.21	42.59708163353
3	124024	23.31	42.489548949138
3	124581	23.41	42.374386939297
3	125138	23.51	42.252966225295
3	125695	23.61	42.126411193975
3	126252	23.71	41.995644234173
3	126809	23.81	41.861422026
3	127366	23.91	41.724365310702
3	127931	24.01	41.584983312302
3	128488	24.11	41.443693771862
3	129045	24.21	41.300839382553
3	129602	24.31	41.156701272136
3	130159	24.41	41.011556940943
3	130716	24.51	40.869003238384
3	131273	24.61	40.735477564529
3	131830	24.71	40.616880524647
3	132387	24.81	40.518191181199
3	132944	24.91	40.443456034258
3	133509	25.01	40.395791677168
3	134066	25.11	40.377373233275
3	134623	25.21	40.387876729909
3	135180	25.31	40.423441010534
3	135737	25.41	40.479563862699
3	136294	25.51	40.552551904076
3	136851	25.61	40.63937527475
3	137408	25.71	40.73754843429
3	137965	25.81	40.845032373831
3	138522	25.91	40.960154395916
3	139087	26.01	41.08154230603
3	139644	26.11	41.208070426737
3	140201	26.21	41.338815310463
3	140758	26.31	41.473019408564
3	141315	26.41	41.610061267297
3	141872	26.51	41.749431078138
3	142429	26.61	41.890710620534
3	142986	26.71	42.033556807965
3	143543	26.81	42.177688189986
3	144100	26.91	42.32282679545
3	144665	27.01	42.465363471292
3	145222	27.11	42.598856642818
3	145779	27.21	42.717409067934
3	146336	27.31	42.816044660405
3	146893	27.41	42.890719525564
3	147450	27.51	42.938319324542
3	148007	27.61	42.956671000835
3	148564	27.71	42.946108152695
3	149121	27.81	42.910495183162
3	149678	27.91	42.854332389134
3	150243	28.01	42.781311581518
3	150800	28.11	42.694461331116
3	151357	28.21	42.596266120836
3	151914	28.31	42.488764092008
3	152471	28.41	42.373627230407
3	153028	28.51	42.252227146722
3	153585	28.61	42.125689039447
3	154142	28.71	41.994935963255
3	154699	28.81	41.86072514448
3	155256	28.91	41.723677772453
3	155821	29.01	41.584303438791
3	156378	29.11	41.443020186105
3	156935	29.21	41.300170954946
3	157492	29.31	41.156037076006
3	158049	29.41	41.010896345715
3	158606	29.51	40.868353351213
3	159163	29.61	40.734848117978
3	159720	29.71	40.616279136189
3	160277	29.81	40.517623596567
3	160834	29.91	40.442926360655
3	161399	30.01	40.395302603962
3	161956	30.11	40.376926150007
3	162513	30.21	40.387466972619
3	163070	30.31	40.423061873548
3	163627	30.41	40.479209845027
3	164184	30.51	40.55221849299
3	164741	30.61	40.639058768242
3	165298	30.71	40.737245795424
3	165855	30.81	40.844741111261
3	166412	30.91	40.959872465872
3	166977	31.01	41.081268031907
3	167534	31.11	41.207802433136
3	168091	31.21	41.338552469078
3	168648	31.31	41.47276079379
3	169205	31.41	41.609806119816
3	169762	31.51	41.749178775045
3	170319	31.61	41.890460650831
3	170876	31.71	42.033308752454
3	171433	31.81	42.177441704779
3	171990	31.91	42.32258164654
3	172555	32.01	42.465122296168
3	173112	32.11	42.598623053264
3	173669	32.21	42.71718589082
3	174226	32.31	42.815834027991
3	174783	32.41	42.890522962046
3	175340	32.51	42.938137827955
3	175897	32.61	42.956505086842
3	176454	32.71	42.945956090486
3	177011	32.81	42.910354484241
3	177568	32.91	42.854201012067
3	178133	33.01	42.781187851618
3	178690	33.11	42.694343874556
3	179247	33.21	42.5961538106
3	179804	33.31	42.488656003551
3	180361	33.41	42.373522605279
3	180918	33.51	42.252125362729
3	181475	33.61	42.125589586175
3	182032	33.71	41.994838421986
3	182589	33.81	41.860629171719
3	183146	33.91	41.723583086416
3	183711	34.01	41.584209808314
3	184268	34.11	41.442927421557
3	184825	34.21	41.300078900759
3	185382	34.31	41.155945604564
3	185939	34.41	41.010805370177
3	186496	34.51	40.868263850359
3	187053	34.61	40.734761432154
3	187610	34.71	40.616196314454
3	188167	34.81	40.517545430209
3	188724	34.91	40.442853415309
3	189289	35.01	40.395235250002
3	189846	35.11	40.376864578797
3	190403	35.21	40.387410541851
3	190960	35.31	40.423009659731
3	191517	35.41	40.47916109058
3	192074	35.51	40.552172576432
3	192631	35.61	40.63901517974
3	193188	35.71	40.73720411674
3	193745	35.81	40.844700999292
3	194302	35.91	40.959833639155
3	194867	36.01	41.081230259545
3	195424	36.11	41.207765525712
3	195981	36.21	41.338516271204
3	196538	36.31	41.472725177995
3	197095	36.41	41.609770981528
3	197652	36.51	41.74914402848
3	198209	36.61	41.890426225614
3	198766	36.71	42.033274590855
3	199323	36.81	42.177407759438
3	199880	36.91	42.322547885231
3	200445	37.01	42.465089082119
3	201002	37.11	42.598590883881
3	201559	37.21	42.717155155412
3	202116	37.31	42.815805020209
3	202673	37.41	42.890495891798
3	203230	37.51	42.938112832688
3	203787	37.61	42.956482237571
3	204344	37.71	42.945935148849
3	204901	37.81	42.910335107528
3	205458	37.91	42.854182919136
3	206023	38.01	42.781170811836
3	206580	38.11	42.694327698724
3	207137	38.21	42.596138343507
3	207694	38.31	42.48864111787
3	208251	38.41	42.373508196559
3	208808	38.51	42.252111345284
3	209365	38.61	42.12557588971
3	209922	38.71	41.994824988838
3	210479	38.81	41.860615954582
3	211036	38.91	41.723570046483
3	211601	39.01	41.58419691375
3	212158	39.11	41.442914646246
3	212715	39.21	41.300066223278
3	213272	39.31	41.155933007337
3	213829	39.41	41.010792841245
3	214386	39.51	40.868251524516
3	214943	39.61	40.734749493989
3	215500	39.71	40.616184908442
3	216057	39.81	40.517534665325
3	216614	39.91	40.44284336945
3	217179	40.01	40.395225974175
3	217736	40.11	40.376856099356
3	218293	40.21	40.387402770339
3	218850	40.31	40.423002468968
3	219407	40.41	40.479154376233
3	219964	40.51	40.552166252912
3	220521	40.61	40.639009176834
3	221078	40.71	40.737198376849
3	221635	40.81	40.844695475166
3	222192	40.91	40.959828292031
3	222757	41.01	41.081225057624
3	223314	41.11	41.207760442908
3	223871	41.21	41.338511286118
3	224428	41.31	41.472720273072
3	224985	41.41	41.609766142366
3	225542	41.51	41.749139243265
3	226099	41.61	41.890421484654
3	226656	41.71	42.0332698862
3	227213	41.81	42.177403084566
3	227770	41.91	42.322543235703
3	228335	42.01	42.465084507958
3	228892	42.11	42.59858645359
3	229449	42.21	42.717150922605
3	230006	42.31	42.815801025326
3	230563	42.41	42.890492163748
3	231120	42.51	42.938109390399
3	231677	42.61	42.956479090824
3	232234	42.71	42.945932264817
3	232791	42.81	42.910332439014
3	233348	42.91	42.854180427423
3	233913	43.01	42.78116846516
3	234470	43.11	42.694325471028
3	235027	43.21	42.596136213418
3	235584	43.31	42.488639067852
3	236141	43.41	42.373506212227
3	236698	43.51	42.252109414837
3	237255	43.61	42.125574003468
3	237812	43.71	41.994823138859
3	238369	43.81	41.860614134352
3	238926	43.91	41.723568250657
3	239491	44.01	41.584195137944
3	240048	44.11	41.442912886864
3	240605	44.21	41.300064477368
3	241162	44.31	41.15593127248
3	241719	44.41	41.010791115793
3	242276	44.51	40.868249827034
3	242833	44.61	40.734747849897
3	243390	44.71	40.616183337637
3	243947	44.81	40.517533182814
3	244504	44.91	40.442841985961
3	245069	45.01	40.395224696733
1	232	1.11	0
1	788	1.21	0
1	1344	1.31	0
1	1900	1.41	0
1	2456	1.51	0
1	3012	1.61	0
1	3568	1.71	0
1	4124	1.81	0
1	4680	1.91	0
1	5244	2.01	0
1	5800	2.11	0
1	6356	2.21	0
1	6912	2.31	0
1	7468	2.41	0
1	8024	2.51	0
1	8580	2.61	0
1	9136	2.71	0
1	9692	2.81	0
1	10248	2.91	0
1	10812	3.01	0
1	11368	3.11	0
1	11924	3.21	0
1	12480	3.31	0
1	13036	3.41	0
1	13592	3.51	0
1	14148	3.61	0
1	14704	3.71	0
1	15260	3.81	0
1	15816	3.91	0
1	16380	4.01	0
1	16936	4.11	0
1	17492	4.21	0
1	18048	4.31	0
1	18604	4.41	0
1	19160	4.51	0
1	19716	4.61	0
1	20272	4.71	0
1	20828	4.81	0
1	21384	4.91	0
1	21949	5.01	0
1	22506	5.11	0
1	23063	5.21	0
1	23620	5.31	0
1	24177	5.41	0
1	24734	5.51	0
1	25291	5.61	0
1	25848	5.71	0
1	26405	5.81	0
1	26962	5.91	0
1	27527	6.01	0
1	28084	6.11	0
1	28641	6.21	0
1	29198	6.31	0
1	29755	6.41	0
1	30312	6.51	0
1	30869	6.61	0
1	31426	6.71	0
1	31983	6.81	0
1	32540	6.91	0
1	33105	7.01	0
1	33662	7.11	0
1	34219	7.21	0
1	34776	7.31	0
1	35333	7.41	0
1	35890	7.51	0
1	36447	7.61	0
1	37004	7.71	0
1	37561	7.81	0
1	38118	7.91	0
1	38683	8.01	0
1	39240	8.11	0
1	39797	8.21	0
1	40354	8.31	0
1	40911	8.41	0
1	41468	8.51	0
1	42025	8.61	0
1	42582	8.71	0
1	43139	8.81	0
1	43696	8.91	0
1	44261	9.01	0
1	44818	9.11	0
1	45375	9.21	0
1	45932	9.31	0
1	46489	9.41	0
1	47046	9.51	0
1	47603	9.61	0
1	48160	9.71	0
1	48717	9.81	0
1	49274	9.91	0
1	49839	10.01	0
1	50396	10.11	0
1	50953	10.21	0
1	51510	10.31	0
1	52067	10.41	0
1	52624	10.51	0
1	53181	10.61	0
1	53738	10.71	0
1	54295	10.81	0
1	54852	10.91	0
1	55417	11.01	0
1	55974	11.11	0
1	56531	11.21	0
1	57088	11.31	0
1	57645	11.41	0
1	58202	11.51	0
1	58759	11.61	0
1	59316	11.71	0
1	59873	11.81	0
1	60430	11.91	0
1	60995	12.01	0
1	61552	12.11	0
1	62109	12.21	0
1	62666	12.31	0
1	63223	12.41	0
1	63780	12.51	0
1	64337	12.61	0
1	64894	12.71	0
1	65451	12.81	0
1	66008	12.91	0
1	66573	13.01	0
1	67130	13.11	0
1	67687	13.21	0
1	68244	13.31	0
1	68801	13.41	0
1	69358	13.51	0
1	69915	13.61	0
1	70472	13.71	0
1	71029	13.81	0
1	71586	13.91	0
1	72151	14.01	0
1	72708	14.11	0
1	73265	14.21	0
1	73822	14.31	0
1	74379	14.41	0
1	74936	14.51	0
1	75493	14.61	0
1	76050	14.71	0
1	76607	14.81	0
1	77164	14.91	0
1	77729	15.01	0
1	78286	15.11	0
1	78843	15.21	0
1	79400	15.31	0
1	79957	15.41	0
1	80514	15.51	0
1	81071	15.61	0
1	81628	15.71	0
1	82185	15.81	0
1	82742	15.91	0
1	83307	16.01	0
1	83864	16.11	0
1	84421	16.21	0
1	84978	16.31	0
1	85535	16.41	0
1	86092	16.51	0
1	86649	16.61	0
1	87206	16.71	0
1	87763	16.81	0
1	88320	16.91	0
1	88885	17.01	0
1	89442	17.11	0
1	89999	17.21	0
1	90556	17.31	0
1	91113	17.41	0
1	91670	17.51	0
1	92227	17.61	0
1	92784	17.71	0
1	93341	17.81	0
1	93898	17.91	0
1	94463	18.01	0
1	95020	18.11	0
1	95577	18.21	0
1	96134	18.31	0
1	96691	18.41	0
1	97248	18.51	0
1	97805	18.61	0
1	98362	18.71	0
1	98919	18.81	0
1	99476	18.91	0
1	100041	19.01	0
1	100598	19.11	0
1	101155	19.21	0
1	101712	19.31	0
1	102269	19.41	0
1	102826	19.51	0
1	103383	19.61	0
1	103940	19.71	0
1	104497	19.81	0
1	105054	19.91	0
1	105619	20.01	0
1	106176	20.11	0
1	106733	20.21	0
1	107290	20.31	0
1	107847	20.41	0
1	108404	20.51	0
1	108961	20.61	0
1	109518	20.71	0
1	110075	20.81	0
1	110632	20.91	0
1	111197	21.01	0
1	111754	21.11	0
1	112311	21.21	0
1	112868	21.31	0
1	113425	21.41	0
1	113982	21.51	0
1	114539	21.61	0
1	115096	21.71	0
1	115653	21.81	0
1	116210	21.91	0
1	116775	22.01	0
1	117332	22.11	0
1	117889	22.21	0
1	118446	22.31	0
1	119003	22.41	0
1	119560	22.51	0
1	120117	22.61	0
1	120674	22.71	0
1	121231	22.81	0
1	121788	22.91	0
1	122353	23.01	0
1	122910	23.11	0
1	123467	23.21	0
1	124024	23.31	0
1	124581	23.41	0
1	125138	23.51	0
1	125695	23.61	0
1	126252	23.71	0
1	126809	23.81	0
1	127366	23.91	0
1	127931	24.01	0
1	128488	24.11	0
1	129045	24.21	0
1	129602	24.31	0
1	130159	24.41	0
1	130716	24.51	0
1	131273	24.61	0
1	131830	24.71	0
1	132387	24.81	0
1	132944	24.91	0
1	133509	25.01	0
1	134066	25.11	0
1	134623	25.21	0
1	135180	25.31	0
1	135737	25.41	0
1	136294	25.51	0
1	136851	25.61	0
1	137408	25.71	0
1	137965	25.81	0
1	138522	25.91	0
1	139087	26.01	0
1	139644	26.11	0
1	140201	26.21	0
1	140758	26.31	0
1	141315	26.41	0
1	141872	26.51	0
1	142429	26.61	0
1	142986	26.71	0
1	143543	26.81	0
1	144100	26.91	0
1	144665	27.01	0
1	145222	27.11	0
1	145779	27.21	0
1	146336	27.31	0
1	146893	27.41	0
1	147450	27.51	0
1	148007	27.61	0
1	148564	27.71	0
1	149121	27.81	0
1	149678	27.91	0
1	150243	28.01	0
1	150800	28.11	0
1	151357	28.21	0
1	151914	28.31	0
1	152471	28.41	0
1	153028	28.51	0
1	153585	28.61	0
1	154142	28.71	0
1	154699	28.81	0
1	155256	28.91	0
1	155821	29.01	0
1	156378	29.11	0
1	156935	29.21	0
1	157492	29.31	0
1	158049	29.41	0
1	158606	29.51	0
1	159163	29.61	0
1	159720	29.71	0
1	160277	29.81	0
1	160834	29.91	0
1	161399	30.01	0
1	161956	30.11	0
1	162513	30.21	0
1	163070	30.31	0
1	163627	30.41	0
1	164184	30.51	0
1	164741	30.61	0
1	165298	30.71	0
1	165855	30.81	0
1	166412	30.91	0
1	166977	31.01	0
1	167534	31.11	0
1	168091	31.21	0
1	168648	31.31	0
1	169205	31.41	0
1	169762	31.51	0
1	170319	31.61	0
1	170876	31.71	0
1	171433	31.81	0
1	171990	31.91	0
1	172555	32.01	0
1	173112	32.11	0
1	173669	32.21	0
1	174226	32.31	0
1	174783	32.41	0
1	175340	32.51	0
1	175897	32.61	0
1	176454	32.71	0
1	177011	32.81	0
1	177568	32.91	0
1	178133	33.01	0
1	178690	33.11	0
1	179247	33.21	0
1	179804	33.31	0
1	180361	33.41	0
1	180918	33.51	0
1	181475	33.61	0
1	182032	33.71	0
1	182589	33.81	0
1	183146	33.91	0
1	183711	34.01	0
1	184268	34.11	0
1	184825	34.21	0
1	185382	34.31	0
1	185939	34.41	0
1	186496	34.51	0
1	187053	34.61	0
1	187610	34.71	0
1	188167	34.81	0
1	188724	34.91	0
1	189289	35.01	0
1	189846	35.11	0
1	190403	35.21	0
1	190960	35.31	0
1	191517	35.41	0
1	192074	35.51	0
1	192631	35.61	0
1	193188	35.71	0
1	193745	35.81	0
1	194302	35.91	0
1	194867	36.01	0
1	195424	36.11	0
1	195981	36.21	0
1	196538	36.31	0
1	197095	36.41	0
1	197652	36.51	0
1	198209	36.61	0
1	198766	36.71	0
1	199323	36.81	0
1	199880	36.91	0
1	200445	37.01	0
1	201002	37.11	0
1	201559	37.21	0
1	202116	37.31	0
1	202673	37.41	0
1	203230	37.51	0
1	203787	37.61	0
1	204344	37.71	0
1	204901	37.81	0
1	205458	37.91	0
1	206023	38.01	0
1	206580	38.11	0
1	207137	38.21	0
1	207694	38.31	0
1	208251	38.41	0
1	208808	38.51	0
1	209365	38.61	0
1	209922	38.71	0
1	210479	38.81	0
1	211036	38.91	0
1	211601	39.01	0
1	212158	39.11	0
1	212715	39.21	0
1	213272	39.31	0
1	213829	39.41	0
1	214386	39.51	0
1	214943	39.61	0
1	215500	39.71	0
1	216057	39.81	0
1	216614	39.91	0
1	217179	40.01	0
1	217736	40.11	0
1	218293	40.21	0
1	218850	40.31	0
1	219407	40.41	0
1	219964	40.51	0
1	220521	40.61	0
1	221078	40.71	0
1	221635	40.81	0
1	222192	40.91	0
1	222757	41.01	0
1	223314	41.11	0
1	223871	41.21	0
1	224428	41.31	0
1	224985	41.41	0
1	225542	41.51	0
1	226099	41.61	0
1	226656	41.71	0
1	227213	41.81	0
1	227770	41.91	0
1	228335	42.01	0
1	228892	42.11	0
1	229449	42.21	0
1	230006	42.31	0
1	230563	42.41	0
1	231120	42.51	0
1	231677	42.61	0
1	232234	42.71	0
1	232791	42.81	0
1	233348	42.91	0
1	233913	43.01	0
1	234470	43.11	0
1	235027	43.21	0
1	235584	43.31	0
1	236141	43.41	0
1	236698	43.51	0
1	237255	43.61	0
1	237812	43.71	0
1	238369	43.81	0
1	238926	43.91	0
1	239491	44.01	0
1	240048	44.11	0
1	240605	44.21	0
1	241162	44.31	0
1	241719	44.41	0
1	242276	44.51	0
1	242833	44.61	0
1	243390	44.71	0
1	243947	44.81	0
1	244504	44.91	0
1	245069	45.01	0
0	232	1.11	-1
0	788	1.21	-1
0	1344	1.31	-1
0	1900	1.41	-1
0	2456	1.51	-1
0	3012	1.61	-1
0	3568	1.71	-1
0	4124	1.81	-1
0	4680	1.91	-1
0	5244	2.01	-1
0	5800	2.11	-1
0	6356	2.21	-1
0	6912	2.31	-1
0	7468	2.41	-1
0	8024	2.51	-1
0	8580	2.61	-1
0	9136	2.71	-1
0	9692	2.81	-1
0	10248	2.91	-1
0	10812	3.01	-1
0	11368	3.11	-1
0	11924	3.21	-1
0	12480	3.31	-1
0	13036	3.41	-1
0	13592	3.51	-1
0	14148	3.61	-1
0	14704	3.71	-1
0	15260	3.81	-1
0	15816	3.91	-1
0	16380	4.01	-1
0	16936	4.11	-1
0	17492	4.21	-1
0	18048	4.31	-1
0	18604	4.41	-1
0	19160	4.51	-1
0	19716	4.61	-1
0	20272	4.71	-1
0	20828	4.81	-1
0	21384	4.91	-1
0	21949	5.01	-1
0	22506	5.11	-1
0	23063	5.21	-1
0	23620	5.31	-1
0	24177	5.41	-1
0	24734	5.51	-1
0	25291	5.61	-1
0	25848	5.71	-1
0	26405	5.81	-1
0	26962	5.91	-1
0	27527	6.01	-1
0	28084	6.11	-1
0	28641	6.21	-1
0	29198	6.31	-1
0	29755	6.41	-1
0	30312	6.51	-1
0	30869	6.61	-1
0	31426	6.71	-1
0	31983	6.81	-1
0	32540	6.91	-1
0	33105	7.01	-1
0	33662	7.11	-1
0	34219	7.21	-1
0	34776	7.31	-1
0	35333	7.41	-1
0	35890	7.51	-1
0	36447	7.61	-1
0	37004	7.71	-1
0	37561	7.81	-1
0	38118	7.91	-1
0	38683	8.01	-1
0	39240	8.11	-1
0	39797	8.21	-1
0	40354	8.31	-1
0	40911	8.41	-1
0	41468	8.51	-1
0	42025	8.61	-1
0	42582	8.71	-1
0	43139	8.81	-1
0	43696	8.91	-1
0	44261	9.01	-1
0	44818	9.11	-1
0	45375	9.21	-1
0	45932	9.31	-1
0	46489	9.41	-1
0	47046	9.51	-1
0	47603	9.61	-1
0	48160	9.71	-1
0	48717	9.81	-1
0	49274	9.91	-1
0	49839	10.01	-1
0	50396	10.11	-1
0	50953	10.21	-1
0	51510	10.31	-1
0	52067	10.41	-1
0	52624	10.51	-1
0	53181	10.61	-1
0	53738	10.71	-1
0	54295	10.81	-1
0	54852	10.91	-1
0	55417	11.01	-1
0	55974	11.11	-1
0	56531	11.21	-1
0	57088	11.31	-1
0	57645	11.41	-1
0	58202	11.51	-1
0	58759	11.61	-1
0	59316	11.71	-1
[...]
35	213518	39.362212445023	0.099999533755
35	214075	39.462211973121	0.099999528098
35	214632	39.562211495448	0.099999522327
35	215189	39.662211011896	0.099999516448
35	215746	39.762210522367	0.099999510471
35	216303	39.86221002678	0.099999504413
35	216860	39.962209525071	0.099999498291
35	217425	40.062222017192	0.100012492121
35	217982	40.162221503119	0.099999485927
35	218539	40.262220982843	0.099999479724
35	219096	40.362220456376	0.099999473533
35	219653	40.462219923744	0.099999467368
35	220210	40.562219384983	0.099999461239
35	220767	40.66221884014	0.099999455157
35	221324	40.762218289269	0.099999449129
35	221881	40.862217732431	0.099999443162
35	222438	40.962217169693	0.099999437262
35	223003	41.062216601127	0.099999431434
35	223560	41.162216026811	0.099999425684
35	224117	41.262215446821	0.09999942001
35	224674	41.36221486124	0.099999414419
35	225231	41.462214270153	0.099999408913
35	225788	41.562213673647	0.099999403494
35	226345	41.662213071809	0.099999398162
35	226902	41.762212464732	0.099999392923
35	227459	41.862211852505	0.099999387773
35	228016	41.962211235225	0.09999938272
35	228581	42.062210612982	0.099999377757
35	229138	42.162209985866	0.099999372884
35	229695	42.262222353952	0.100012368086
35	230252	42.362221717304	0.099999363352
35	230809	42.462221075977	0.099999358673
35	231366	42.562220430001	0.099999354024
35	231923	42.662219779391	0.09999934939
35	232480	42.762219124143	0.099999344752
35	233037	42.86221846424	0.099999340097
35	233594	42.962217799649	0.099999335409
35	234159	43.062217130328	0.099999330679
35	234716	43.162216456228	0.0999993259
35	235273	43.262215777293	0.099999321065
35	235830	43.362215093461	0.099999316168
35	236387	43.462214404665	0.099999311204
35	236944	43.562213710839	0.099999306174
35	237501	43.662213011908	0.099999301069
35	238058	43.762212307801	0.099999295893
35	238615	43.862211598442	0.099999290641
35	239172	43.962210883754	0.099999285312
35	239737	44.062210163659	0.099999279905
35	240294	44.162209438082	0.099999274423
35	240851	44.262221706942	0.10001226886
35	241408	44.362220970163	0.099999263221
35	241965	44.462220227663	0.0999992575
35	242522	44.562219479368	0.099999251705
35	243079	44.662218725205	0.099999245837
35	243636	44.762217965118	0.099999239913
35	244193	44.862217199059	0.099999233941
35	244750	44.962216426997	0.099999227938
35	245315	45.062215648923	0.099999221926
36	1034	1.262218481716	0.099999761218
36	1590	1.362218242934	0.099999761218
36	2146	1.462218004152	0.099999761218
36	2702	1.56221776537	0.099999761218
36	3258	1.662217526588	0.099999761218
36	3814	1.762217287806	0.099999761218
36	4370	1.862217049024	0.099999761218
36	4926	1.962216810242	0.099999761218
36	5490	2.06221657146	0.099999761218
36	6046	2.162216332678	0.099999761218
36	6602	2.262216093896	0.099999761218
36	7158	2.362215855114	0.099999761218
36	7714	2.462215616332	0.099999761218
36	8270	2.56221537755	0.099999761218
36	8826	2.662215138768	0.099999761218
36	9382	2.762214899986	0.099999761218
36	9938	2.862214661204	0.099999761218
36	10494	2.962214422422	0.099999761218
36	11058	3.06221418364	0.099999761218
36	11614	3.162213944858	0.099999761218
36	12170	3.262213706076	0.099999761218
36	12726	3.362213467294	0.099999761218
36	13282	3.462213228512	0.099999761218
36	13838	3.56221298973	0.099999761218
36	14394	3.662212750948	0.099999761218
36	14950	3.762212512166	0.099999761218
36	15506	3.862212273384	0.099999761218
36	16062	3.962212034602	0.099999761218
36	16626	4.06221179582	0.099999761218
36	17182	4.162211557038	0.099999761218
36	17738	4.262211318256	0.099999761218
36	18294	4.362211079474	0.099999761218
36	18850	4.462210840692	0.099999761218
36	19406	4.56221060191	0.099999761218
36	19962	4.662210363128	0.099999761218
36	20518	4.762210124346	0.099999761218
36	21074	4.862209885564	0.099999761218
36	21630	4.962209646782	0.099999761218
36	22195	5.062222408	0.100012761218
36	22752	5.162222169219	0.099999761219
36	23309	5.262221930439	0.09999976122
36	23866	5.362221691668	0.099999761229
36	24423	5.462221452921	0.099999761253
36	24980	5.562221214209	0.099999761288
36	25537	5.662220975557	0.099999761348
36	26094	5.762220736981	0.099999761424
36	26651	5.862220498501	0.09999976152
36	27208	5.962220260134	0.099999761633
36	27773	6.062220021891	0.099999761757
36	28330	6.162219783784	0.099999761893
36	28887	6.262219545824	0.09999976204
36	29444	6.362219308018	0.099999762194
36	30001	6.462219070374	0.099999762356
36	30558	6.562218832898	0.099999762524
36	31115	6.662218595592	0.099999762694
36	31672	6.762218358459	0.099999762867
36	32229	6.862218121501	0.099999763042
36	32786	6.962217884709	0.099999763208
36	33351	7.06221764807	0.099999763361
36	33908	7.162217411569	0.099999763499
36	34465	7.262217175187	0.099999763618
36	35022	7.362216938899	0.099999763712
36	35579	7.462216702675	0.099999763776
36	36136	7.562216466487	0.099999763812
36	36693	7.662216230306	0.099999763819
36	37250	7.762215994109	0.099999763803
36	37807	7.862215757868	0.099999763759
36	38364	7.962215521569	0.099999763701
36	38929	8.062215285195	0.099999763626
36	39486	8.162215048732	0.099999763537
36	40043	8.262214812169	0.099999763437
36	40600	8.362214575496	0.099999763327
36	41157	8.462214338705	0.099999763209
36	41714	8.562214101787	0.099999763082
36	42271	8.662213864734	0.099999762947
36	42828	8.76221362754	0.099999762806
36	43385	8.8622133902	0.09999976266
36	43942	8.962213152706	0.099999762506
36	44507	9.062212915055	0.099999762349
36	45064	9.162212677242	0.099999762187
36	45621	9.262212439261	0.099999762019
36	46178	9.362212201107	0.099999761846
36	46735	9.462211962776	0.099999761669
36	47292	9.562211724268	0.099999761492
36	47849	9.662211485576	0.099999761308
36	48406	9.762211246707	0.099999761131
36	48963	9.862211007669	0.099999760962
36	49520	9.962210768483	0.099999760814
36	50085	10.062210529169	0.099999760686
36	50642	10.162210289757	0.099999760588
36	51199	10.262210050275	0.099999760518
36	51756	10.362209810757	0.099999760482
36	52313	10.462209571234	0.099999760477
36	52870	10.562222331731	0.100012760497
36	53427	10.662222092271	0.09999976054
36	53984	10.762221852871	0.0999997606
36	54541	10.86222161355	0.099999760679
36	55098	10.962221374319	0.099999760769
36	55663	11.062221135189	0.09999976087
36	56220	11.162220896173	0.099999760984
36	56777	11.262220657278	0.099999761105
36	57334	11.362220418514	0.099999761236
36	57891	11.462220179887	0.099999761373
36	58448	11.562219941404	0.099999761517
36	59005	11.662219703069	0.099999761665
36	59562	11.762219464887	0.099999761818
36	60119	11.862219226864	0.099999761977
36	60676	11.962218989003	0.099999762139
36	61241	12.062218751304	0.099999762301
36	61798	12.162218513764	0.09999976246
36	62355	12.262218276372	0.099999762608
36	62912	12.362218039109	0.099999762737
36	63469	12.462217801959	0.09999976285
36	64026	12.562217564894	0.099999762935
36	64583	12.662217327881	0.099999762987
36	65140	12.762217090893	0.099999763012
36	65697	12.862216853899	0.099999763006
36	66254	12.962216616874	0.099999762975
36	66819	13.062216379797	0.099999762923
36	67376	13.162216142648	0.099999762851
36	67933	13.262215905413	0.099999762765
36	68490	13.362215668077	0.099999762664
36	69047	13.462215430631	0.099999762554
36	69604	13.562215193066	0.099999762435
36	70161	13.66221495537	0.099999762304
36	70718	13.762214717539	0.099999762169
36	71275	13.862214479563	0.099999762024
36	71832	13.962214241439	0.099999761876
36	72397	14.062214003159	0.09999976172
36	72954	14.162213764722	0.099999761563
36	73511	14.262213526119	0.099999761397
36	74068	14.362213287347	0.099999761228
36	74625	14.4622130484	0.099999761053
36	75182	14.562212809278	0.099999760878
36	75739	14.662212569982	0.099999760704
36	76296	14.762212330521	0.099999760539
36	76853	14.862212090909	0.099999760388
36	77410	14.962211851166	0.099999760257
36	77975	15.062211611318	0.099999760152
36	78532	15.162211371394	0.099999760076
36	79089	15.262211131427	0.099999760033
36	79646	15.362210891446	0.099999760019
36	80203	15.46221065148	0.099999760034
36	80760	15.562210411552	0.099999760072
36	81317	15.662210171683	0.099999760131
36	81874	15.762209931889	0.099999760206
36	82431	15.862209692187	0.099999760298
36	82988	15.962222452587	0.1000127604
36	83553	16.062222213101	0.099999760514
36	84110	16.162221973737	0.099999760636
36	84667	16.262221734506	0.099999760769
36	85224	16.362221495411	0.099999760905
36	85781	16.462221256458	0.099999761047
36	86338	16.562221017656	0.099999761198
36	86895	16.66222077901	0.099999761354
36	87452	16.762220540524	0.099999761514
36	88009	16.8622203022	0.099999761676
36	88566	16.962220064045	0.099999761845
36	89131	17.062219826056	0.099999762011
36	89688	17.162219588234	0.099999762178
36	90245	17.262219350569	0.099999762335
36	90802	17.362219113045	0.099999762476
36	91359	17.46221887564	0.099999762595
36	91916	17.562218638329	0.099999762689
36	92473	17.662218401082	0.099999762753
36	93030	17.762218163868	0.099999762786
36	93587	17.862217926659	0.099999762791
36	94144	17.962217689425	0.099999762766
36	94709	18.062217452146	0.099999762721
36	95266	18.162217214801	0.099999762655
36	95823	18.262216977378	0.099999762577
36	96380	18.36221673986	0.099999762482
36	96937	18.462216502237	0.099999762377
36	97494	18.562216264497	0.09999976226
36	98051	18.662216026635	0.099999762138
36	98608	18.762215788639	0.099999762004
36	99165	18.862215550506	0.099999761867
36	99722	18.962215312228	0.099999761722
36	100287	19.0622150738	0.099999761572
36	100844	19.162214835215	0.099999761415
36	101401	19.26221459647	0.099999761255
36	101958	19.362214357558	0.099999761088
36	102515	19.462214118479	0.099999760921
36	103072	19.562213879227	0.099999760748
36	103629	19.662213639806	0.099999760579
36	104186	19.762213400226	0.09999976042
36	104743	19.862213160499	0.099999760273
36	105300	19.962212920649	0.09999976015
36	105865	20.0622126807	0.099999760051
36	106422	20.162212440683	0.099999759983
36	106979	20.262212200625	0.099999759942
36	107536	20.362211960562	0.099999759937
36	108093	20.462211720521	0.099999759959
36	108650	20.562211480523	0.099999760002
36	109207	20.66221124059	0.099999760067
36	109764	20.762211000736	0.099999760146
36	110321	20.86221076098	0.099999760244
36	110878	20.96221052133	0.09999976035
36	111443	21.062210281798	0.099999760468
36	112000	21.162210042393	0.099999760595
36	112557	21.262209803121	0.099999760728
36	113114	21.362209563989	0.099999760868
36	113671	21.462222325005	0.100012761016
36	114228	21.562222086173	0.099999761168
36	114785	21.662221847497	0.099999761324
36	115342	21.762221608983	0.099999761486
36	115899	21.862221370637	0.099999761654
36	116456	21.962221132458	0.099999761821
36	117021	22.062220894449	0.099999761991
36	117578	22.162220656607	0.099999762158
36	118135	22.262220418922	0.099999762315
36	118692	22.362220181382	0.09999976246
36	119249	22.462219943964	0.099999762582
36	119806	22.562219706642	0.099999762678
36	120363	22.662219469386	0.099999762744
36	120920	22.762219232169	0.099999762783
36	121477	22.862218994957	0.099999762788
36	122034	22.962218757726	0.099999762769
36	122599	23.062218520449	0.099999762723
36	123156	23.162218283111	0.099999762662
36	123713	23.262218045693	0.099999762582
36	124270	23.362217808183	0.09999976249
36	124827	23.462217570572	0.099999762389
36	125384	23.562217332846	0.099999762274
36	125941	23.662217094998	0.099999762152
36	126498	23.762216857022	0.099999762024
36	127055	23.862216618912	0.09999976189
36	127612	23.962216380658	0.099999761746
36	128177	24.062216142256	0.099999761598
36	128734	24.162215903702	0.099999761446
36	129291	24.262215664988	0.099999761286
36	129848	24.362215426112	0.099999761124
36	130405	24.462215187069	0.099999760957
36	130962	24.562214947858	0.099999760789
36	131519	24.662214708481	0.099999760623
36	132076	24.762214468946	0.099999760465
36	132633	24.862214229269	0.099999760323
36	133190	24.962213989472	0.099999760203
36	133755	25.062213749578	0.099999760106
36	134312	25.162213509618	0.09999976004
36	134869	25.262213269623	0.099999760005
36	135426	25.362213029626	0.099999760003
36	135983	25.462212789652	0.099999760026
36	136540	25.562212549726	0.099999760074
36	137097	25.662212309866	0.09999976014
36	137654	25.762212070089	0.099999760223
36	138211	25.862211830408	0.099999760319
36	138768	25.962211590837	0.099999760429
36	139333	26.062211351384	0.099999760547
36	139890	26.162211112058	0.099999760674
36	140447	26.262210872867	0.099999760809
36	141004	26.362210633816	0.099999760949
36	141561	26.462210394912	0.099999761096
36	142118	26.562210156162	0.09999976125
36	142675	26.66220991757	0.099999761408
36	143232	26.762209679137	0.099999761567
36	143789	26.86222244087	0.100012761733
36	144346	26.962222202772	0.099999761902
36	144911	27.062221964844	0.099999762072
36	145468	27.162221727084	0.09999976224
36	146025	27.262221489482	0.099999762398
36	146582	27.362221252022	0.09999976254
36	147139	27.462221014684	0.099999762662
36	147696	27.562220777442	0.099999762758
36	148253	27.662220540268	0.099999762826
36	148810	27.762220303131	0.099999762863
36	149367	27.862220066001	0.09999976287
36	149924	27.962219828851	0.09999976285
36	150489	28.062219591658	0.099999762807
36	151046	28.162219354402	0.099999762744
36	151603	28.26221911707	0.099999762668
36	152160	28.362218879647	0.099999762577
36	152717	28.46221864212	0.099999762473
36	153274	28.562218404483	0.099999762363
36	153831	28.662218166726	0.099999762243
36	154388	28.76221792884	0.099999762114
36	154945	28.862217690819	0.099999761979
36	155502	28.962217452657	0.099999761838
36	156067	29.062217214349	0.099999761692
36	156624	29.16221697589	0.099999761541
36	157181	29.262216737274	0.099999761384
36	157738	29.362216498498	0.099999761224
36	158295	29.462216259556	0.099999761058
36	158852	29.562216020448	0.099999760892
36	159409	29.662215781175	0.099999760727
36	159966	29.762215541746	0.099999760571
36	160523	29.862215302177	0.099999760431
36	161080	29.962215062489	0.099999760312
36	161645	30.062214822707	0.099999760218
36	162202	30.16221458286	0.099999760153
36	162759	30.262214342983	0.099999760123
36	163316	30.362214103103	0.09999976012
36	163873	30.462213863252	0.099999760149
36	164430	30.562213623449	0.099999760197
36	164987	30.662213383716	0.099999760267
36	165544	30.762213144069	0.099999760353
36	166101	30.86221290452	0.099999760451
36	166658	30.962212665083	0.099999760563
36	167223	31.062212425768	0.099999760685
36	167780	31.162212186585	0.099999760817
36	168337	31.26221194754	0.099999760955
36	168894	31.362211708641	0.099999761101
36	169451	31.462211469894	0.099999761253
36	170008	31.562211231303	0.099999761409
36	170565	31.662210992874	0.099999761571
36	171122	31.762210754613	0.099999761739
36	171679	31.862210516521	0.099999761908
36	172236	31.962210278603	0.099999762082
36	172801	32.062210040862	0.099999762259
36	173358	32.162209803288	0.099999762426
36	173915	32.262209565869	0.099999762581
36	174472	32.362222328574	0.100012762705
36	175029	32.462222091358	0.099999762784
36	175586	32.562221854155	0.099999762797
36	176143	32.662221616884	0.099999762729
36	176700	32.762221379445	0.099999762561
36	177257	32.86222114172	0.099999762275
36	177814	32.962220903574	0.099999761854
36	178379	33.062220664868	0.099999761294
36	178936	33.162220425453	0.099999760585
36	179493	33.262220185172	0.099999759719
36	180050	33.362219943861	0.099999758689
36	180607	33.462219701354	0.099999757493
36	181164	33.562219457482	0.099999756128
36	181721	33.662219212072	0.09999975459
36	182278	33.762218964949	0.099999752877
36	182835	33.862218715938	0.099999750989
36	183392	33.962218464862	0.099999748924
36	183957	34.062218211544	0.099999746682
36	184514	34.162217955804	0.09999974426
36	185071	34.262217697465	0.099999741661
36	185628	34.362217436349	0.099999738884
36	186185	34.462217172277	0.099999735928
36	186742	34.562216905075	0.099999732798
36	187299	34.662216634575	0.0999997295
36	187856	34.762216360622	0.099999726047
36	188413	34.862216083068	0.099999722446
36	188970	34.962215801791	0.099999718723
36	189535	35.062215516683	0.099999714892
36	190092	35.162215227657	0.099999710974
36	190649	35.262214934644	0.099999706987
36	191206	35.362214637597	0.099999702953
36	191763	35.46221433648	0.099999698883
36	192320	35.56221403127	0.09999969479
36	192877	35.662213721951	0.099999690681
36	193434	35.762213408519	0.099999686568
36	193991	35.862213090977	0.099999682458
36	194548	35.962212769335	0.099999678358
36	195113	36.062212443601	0.099999674266
36	195670	36.162212113795	0.099999670194
36	196227	36.262211779938	0.099999666143
36	196784	36.362211442053	0.099999662115
36	197341	36.462211100167	0.099999658114
36	197898	36.562210754311	0.099999654144
36	198455	36.662210404519	0.099999650208
36	199012	36.762210050826	0.099999646307
36	199569	36.862209693267	0.099999642441
36	200126	36.962222331884	0.100012638617
36	200691	37.06222196671	0.099999634826
36	201248	37.162221597782	0.099999631072
36	201805	37.262221225125	0.099999627343
36	202362	37.362220848752	0.099999623627
36	202919	37.462220468661	0.099999619909
36	203476	37.562220084832	0.099999616171
36	204033	37.662219697232	0.0999996124
36	204590	37.762219305807	0.099999608575
36	205147	37.862218910485	0.099999604678
36	205704	37.962218511191	0.099999600706
36	206269	38.062218107832	0.099999596641
36	206826	38.162217700312	0.09999959248
36	207383	38.262217288527	0.099999588215
36	207940	38.362216872369	0.099999583842
36	208497	38.462216451728	0.099999579359
36	209054	38.56221602649	0.099999574762
36	209611	38.662215596539	0.099999570049
36	210168	38.762215161758	0.099999565219
36	210725	38.862214722028	0.09999956027
36	211282	38.962214277233	0.099999555205
36	211847	39.062213827254	0.099999550021
36	212404	39.162213371971	0.099999544717
36	212961	39.262212911268	0.099999539297
36	213518	39.362212445023	0.099999533755
36	214075	39.462211973121	0.099999528098
36	214632	39.562211495448	0.099999522327
36	215189	39.662211011896	0.099999516448
36	215746	39.762210522367	0.099999510471
36	216303	39.86221002678	0.099999504413
36	216860	39.962209525071	0.099999498291
36	217425	40.062222017192	0.100012492121
36	217982	40.162221503119	0.099999485927
36	218539	40.262220982843	0.099999479724
36	219096	40.362220456376	0.099999473533
36	219653	40.462219923744	0.099999467368
36	220210	40.562219384983	0.099999461239
36	220767	40.66221884014	0.099999455157
36	221324	40.762218289269	0.099999449129
36	221881	40.862217732431	0.099999443162
36	222438	40.962217169693	0.099999437262
36	223003	41.062216601127	0.099999431434
36	223560	41.162216026811	0.099999425684
36	224117	41.262215446821	0.09999942001
36	224674	41.36221486124	0.099999414419
36	225231	41.462214270153	0.099999408913
36	225788	41.562213673647	0.099999403494
36	226345	41.662213071809	0.099999398162
36	226902	41.762212464732	0.099999392923
36	227459	41.862211852505	0.099999387773
36	228016	41.962211235225	0.09999938272
36	228581	42.062210612982	0.099999377757
36	229138	42.162209985866	0.099999372884
36	229695	42.262222353952	0.100012368086
36	230252	42.362221717304	0.099999363352
36	230809	42.462221075977	0.099999358673
36	231366	42.562220430001	0.099999354024
36	231923	42.662219779391	0.09999934939
36	232480	42.762219124143	0.099999344752
36	233037	42.86221846424	0.099999340097
36	233594	42.962217799649	0.099999335409
36	234159	43.062217130328	0.099999330679
36	234716	43.162216456228	0.0999993259
36	235273	43.262215777293	0.099999321065
36	235830	43.362215093461	0.099999316168
36	236387	43.462214404665	0.099999311204
36	236944	43.562213710839	0.099999306174
36	237501	43.662213011908	0.099999301069
36	238058	43.762212307801	0.099999295893
36	238615	43.862211598442	0.099999290641
36	239172	43.962210883754	0.099999285312
36	239737	44.062210163659	0.099999279905
36	240294	44.162209438082	0.099999274423
36	240851	44.262221706942	0.10001226886
36	241408	44.362220970163	0.099999263221
36	241965	44.462220227663	0.0999992575
36	242522	44.562219479368	0.099999251705
36	243079	44.662218725205	0.099999245837
36	243636	44.762217965118	0.099999239913
36	244193	44.862217199059	0.099999233941
36	244750	44.962216426997	0.099999227938
36	245315	45.062215648923	0.099999221926
