file 1077400 1501603628                                         
version 2
run SinusoidalJammingDetail-546-20170801-18:06:46-88963
attr CACCSpacing 11
attr attackAcc -30
attr attackPos 7
attr attackSpeed 150
attr attackStart 30.5
attr attacker 1
attr beaconInterval 0.1
attr configname SinusoidalJammingDetail
attr controller 1
attr datetime 20170801-18:06:46
attr experiment SinusoidalJammingDetail
attr fakeAcc "(1 == 4)"
attr fakePos "(1 == 2)"
attr fakeSpeed "(1 == 3)"
attr inifile omnetpp_546.ini
attr iterationvars "$leaderSpeed=120, $controller=1, $CACCSpacing=11, $sController=\"CACC\", $attacker=1, $attackStart=30.5, $attackSpeed=150, $attackPos=7, $attackAcc=-30, $0=11, $1=0, $nCars=8, $platoonSize=8, $nLanes=1, $beaconInterval=0.1, $priority=2, $packetSize=200, $ploegH=0.5, $leaderHeadway=1.2, $fakeSpeed=(1 == 3), $fakeAcc=(1 == 4), $fakePos=(1 == 2)"
attr iterationvarsf leaderSpeed=120,controller=1,CACCSpacing=11,sController=CACC,attacker=1,attackStart=30.5,attackSpeed=150,attackPos=7,attackAcc=-30,11,0,nCars=8,platoonSize=8,nLanes=1,beaconInterval=0.1,priority=2,packetSize=200,ploegH=0.5,leaderHeadway=1.2,fakeSpeed=(1_==_3),fakeAcc=(1_==_4),fakePos=(1_==_2)-
attr leaderHeadway 1.2
attr leaderSpeed 120
attr measurement "$leaderSpeed=120, $controller=1, $CACCSpacing=11, $sController=\"CACC\", $attacker=1, $attackStart=30.5, $attackSpeed=150, $attackPos=7, $attackAcc=-30, $0=11, $1=0, $nCars=8, $platoonSize=8, $nLanes=1, $beaconInterval=0.1, $priority=2, $packetSize=200, $ploegH=0.5, $leaderHeadway=1.2, $fakeSpeed=(1 == 3), $fakeAcc=(1 == 4), $fakePos=(1 == 2)"
attr nCars 8
attr nLanes 1
attr network scenario
attr packetSize 200
attr platoonSize 8
attr ploegH 0.5
attr priority 2
attr processid 88963
attr repetition 1
attr replication #1
attr resultdir results
attr runnumber 546
attr sController "\"CACC\""
attr seedset 1
param **.coreDebug false
param **.debug false
param **.headway 0.1s
param **.numberOfCars 8
param **.numberOfCarsPerPlatoon 8
param **.numberOfLanes 1
param **.numericController 1
param **.traffic.nCars 8
param **.traffic.nLanes 1
param **.traffic.platoonInsertDistance 11m
param **.traffic.platoonInsertHeadway 0s
param **.traffic.platoonInsertSpeed 120kmph
param **.traffic.platoonInsertTime "1 s"
param **.traffic.platoonLeaderHeadway 1.2s
param **.traffic.platoonSize 8
param **.traffic.platooningVType "\"vtypeauto\""
param **.traffic_type "\"PlatoonsTrafficManager\""
param *.**.nic.mac1609_4.bitrate 6Mbps
param *.**.nic.mac1609_4.txPower 100mW
param *.**.nic.mac1609_4.useServiceChannel false
param *.**.nic.phy80211p.analogueModels "xmldoc(\"config.xml\")"
param *.**.nic.phy80211p.decider "xmldoc(\"config.xml\")"
param *.**.nic.phy80211p.maxTXPower 100mW
param *.**.nic.phy80211p.sensitivity -94dBm
param *.**.nic.phy80211p.thermalNoise -95dBm
param *.**.nic.phy80211p.usePropagationDelay true
param *.**.nic.phy80211p.useThermalNoise true
param *.annotations.draw false
param *.connectionManager.alpha 2.0
param *.connectionManager.carrierFrequency "5.890e9 Hz"
param *.connectionManager.pMax 100mW
param *.connectionManager.sat -94dBm
param *.connectionManager.sendDirect true
param *.manager.autoShutdown true
param *.manager.commandLine "\"sumo --remote-port $port --seed $seed --configuration-file $configFile\""
param *.manager.configFile "\"./sumocfg/freeway.sumo.cfg\""
param *.manager.host "\"localhost\""
param *.manager.margin 25
param *.manager.moduleDisplayString "\"\""
param *.manager.moduleName "\"node\""
param *.manager.moduleType "\"Car\""
param *.manager.updateInterval 0.01s
param *.node[*].appl.attackStart 30.5s
param *.node[*].appl.attackerType 1
param *.node[*].appl.simulationDuration "60 s"
param *.node[*].appl_type "\"SimplePlatooningApp\""
param *.node[*].helper.nCars 8
param *.node[*].helper.nLanes 1
param *.node[*].helper.platoonSize 8
param *.node[*].helper_type "\"PositionHelper\""
param *.node[*].mobility.x 0
param *.node[*].mobility.y 0
param *.node[*].mobility.z 1.895
param *.node[*].prot.attackStart 30.5s
param *.node[*].prot.attackerType 1
param *.node[*].prot.attackingNode 3
param *.node[*].prot.beaconingInterval 0.1s
param *.node[*].prot.fakeAcc "(1 == 4)"
param *.node[*].prot.fakePos "(1 == 2)"
param *.node[*].prot.fakeSpeed "(1 == 3)"
param *.node[*].prot.maliciousAcc "-30 mpss"
param *.node[*].prot.maliciousSpeed 150kmph
param *.node[*].prot.packetSize 200
param *.node[*].prot.priority 2
param *.node[*].prot.shiftX "7 m"
param *.node[*].prot.useControllerAcceleration true
param *.node[*].protocol_type "\"SimplePlatooningBeaconing\""
param *.node[*].scenario.accHeadway 0.1s
param *.node[*].scenario.caccC1 0.5
param *.node[*].scenario.caccOmegaN "0.2 Hz"
param *.node[*].scenario.caccSpacing 11m
param *.node[*].scenario.caccXi 1
param *.node[*].scenario.controller "\"CACC\""
param *.node[*].scenario.engineTau "0.5 s"
param *.node[*].scenario.leaderHeadway 1.2s
param *.node[*].scenario.leaderOscillationFrequency "0.2 Hz"
param *.node[*].scenario.leaderSpeed 120kmph
param *.node[*].scenario.oscillationAmplitude "10 kmph"
param *.node[*].scenario.ploegH 0.5s
param *.node[*].scenario.ploegKd 0.7
param *.node[*].scenario.ploegKp 0.2
param *.node[*].scenario.startOscillating "5 s"
param *.node[*].scenario.useRealisticEngine false
param *.node[*].scenario_type "\"SinusoidalScenario\""
param *.node[*].unicast.packetLossRate 0
param *.obstacles.debug false
param *.playgroundSizeX 65000m
param *.playgroundSizeY 25000m
param *.playgroundSizeZ 50m
param *.world.use2D false
param *.world.useTorus false

vector 0  scenario.node[0].appl  distance  ETV
vector 1  scenario.node[0].appl  relativeSpeed  ETV
vector 2  scenario.node[0].appl  nodeId  ETV
vector 6  scenario.node[0].appl  acceleration  ETV
vector 7  scenario.node[0].appl  controllerAcceleration  ETV
vector 3  scenario.node[0].appl  speed  ETV
vector 4  scenario.node[0].appl  posx  ETV
vector 5  scenario.node[0].appl  posy  ETV
vector 22  scenario.node[1].appl  distance  ETV
vector 23  scenario.node[1].appl  relativeSpeed  ETV
vector 24  scenario.node[1].appl  nodeId  ETV
vector 28  scenario.node[1].appl  acceleration  ETV
vector 29  scenario.node[1].appl  controllerAcceleration  ETV
vector 25  scenario.node[1].appl  speed  ETV
vector 26  scenario.node[1].appl  posx  ETV
vector 27  scenario.node[1].appl  posy  ETV
vector 44  scenario.node[2].appl  distance  ETV
vector 45  scenario.node[2].appl  relativeSpeed  ETV
vector 46  scenario.node[2].appl  nodeId  ETV
vector 50  scenario.node[2].appl  acceleration  ETV
vector 51  scenario.node[2].appl  controllerAcceleration  ETV
vector 47  scenario.node[2].appl  speed  ETV
vector 48  scenario.node[2].appl  posx  ETV
vector 49  scenario.node[2].appl  posy  ETV
vector 66  scenario.node[3].appl  distance  ETV
vector 67  scenario.node[3].appl  relativeSpeed  ETV
vector 68  scenario.node[3].appl  nodeId  ETV
vector 72  scenario.node[3].appl  acceleration  ETV
vector 73  scenario.node[3].appl  controllerAcceleration  ETV
vector 69  scenario.node[3].appl  speed  ETV
vector 70  scenario.node[3].appl  posx  ETV
vector 71  scenario.node[3].appl  posy  ETV
vector 88  scenario.node[4].appl  distance  ETV
vector 89  scenario.node[4].appl  relativeSpeed  ETV
vector 90  scenario.node[4].appl  nodeId  ETV
vector 94  scenario.node[4].appl  acceleration  ETV
vector 95  scenario.node[4].appl  controllerAcceleration  ETV
vector 91  scenario.node[4].appl  speed  ETV
vector 92  scenario.node[4].appl  posx  ETV
vector 93  scenario.node[4].appl  posy  ETV
vector 110  scenario.node[5].appl  distance  ETV
vector 111  scenario.node[5].appl  relativeSpeed  ETV
vector 112  scenario.node[5].appl  nodeId  ETV
vector 116  scenario.node[5].appl  acceleration  ETV
vector 117  scenario.node[5].appl  controllerAcceleration  ETV
vector 113  scenario.node[5].appl  speed  ETV
vector 114  scenario.node[5].appl  posx  ETV
vector 115  scenario.node[5].appl  posy  ETV
vector 132  scenario.node[6].appl  distance  ETV
vector 133  scenario.node[6].appl  relativeSpeed  ETV
vector 134  scenario.node[6].appl  nodeId  ETV
vector 138  scenario.node[6].appl  acceleration  ETV
vector 139  scenario.node[6].appl  controllerAcceleration  ETV
vector 135  scenario.node[6].appl  speed  ETV
vector 136  scenario.node[6].appl  posx  ETV
vector 137  scenario.node[6].appl  posy  ETV
vector 154  scenario.node[7].appl  distance  ETV
vector 155  scenario.node[7].appl  relativeSpeed  ETV
vector 156  scenario.node[7].appl  nodeId  ETV
vector 160  scenario.node[7].appl  acceleration  ETV
vector 161  scenario.node[7].appl  controllerAcceleration  ETV
vector 157  scenario.node[7].appl  speed  ETV
vector 158  scenario.node[7].appl  posx  ETV
vector 159  scenario.node[7].appl  posy  ETV
vector 58  scenario.node[2].prot  frontDelay  ETV
vector 56  scenario.node[2].prot  frontDelayId  ETV
vector 102  scenario.node[4].prot  frontDelay  ETV
vector 100  scenario.node[4].prot  frontDelayId  ETV
vector 146  scenario.node[6].prot  frontDelay  ETV
vector 144  scenario.node[6].prot  frontDelayId  ETV
vector 168  scenario.node[7].prot  frontDelay  ETV
vector 166  scenario.node[7].prot  frontDelayId  ETV
vector 124  scenario.node[5].prot  frontDelay  ETV
vector 122  scenario.node[5].prot  frontDelayId  ETV
vector 35  scenario.node[1].prot  leaderDelay  ETV
vector 33  scenario.node[1].prot  leaderDelayId  ETV
vector 36  scenario.node[1].prot  frontDelay  ETV
vector 34  scenario.node[1].prot  frontDelayId  ETV
vector 57  scenario.node[2].prot  leaderDelay  ETV
vector 55  scenario.node[2].prot  leaderDelayId  ETV
vector 79  scenario.node[3].prot  leaderDelay  ETV
vector 77  scenario.node[3].prot  leaderDelayId  ETV
vector 101  scenario.node[4].prot  leaderDelay  ETV
vector 99  scenario.node[4].prot  leaderDelayId  ETV
vector 123  scenario.node[5].prot  leaderDelay  ETV
vector 121  scenario.node[5].prot  leaderDelayId  ETV
vector 145  scenario.node[6].prot  leaderDelay  ETV
vector 143  scenario.node[6].prot  leaderDelayId  ETV
vector 167  scenario.node[7].prot  leaderDelay  ETV
vector 165  scenario.node[7].prot  leaderDelayId  ETV
vector 80  scenario.node[3].prot  frontDelay  ETV
vector 78  scenario.node[3].prot  frontDelayId  ETV
vector 8  scenario.node[0].prot  nodeId  ETV
vector 9  scenario.node[0].prot  busyTime  ETV
vector 10  scenario.node[0].prot  collisions  ETV
vector 30  scenario.node[1].prot  nodeId  ETV
vector 31  scenario.node[1].prot  busyTime  ETV
vector 32  scenario.node[1].prot  collisions  ETV
vector 52  scenario.node[2].prot  nodeId  ETV
vector 53  scenario.node[2].prot  busyTime  ETV
vector 54  scenario.node[2].prot  collisions  ETV
vector 74  scenario.node[3].prot  nodeId  ETV
vector 75  scenario.node[3].prot  busyTime  ETV
vector 76  scenario.node[3].prot  collisions  ETV
vector 96  scenario.node[4].prot  nodeId  ETV
vector 97  scenario.node[4].prot  busyTime  ETV
vector 98  scenario.node[4].prot  collisions  ETV
vector 118  scenario.node[5].prot  nodeId  ETV
vector 119  scenario.node[5].prot  busyTime  ETV
vector 120  scenario.node[5].prot  collisions  ETV
vector 140  scenario.node[6].prot  nodeId  ETV
vector 141  scenario.node[6].prot  busyTime  ETV
vector 142  scenario.node[6].prot  collisions  ETV
vector 162  scenario.node[7].prot  nodeId  ETV
vector 163  scenario.node[7].prot  busyTime  ETV
vector 164  scenario.node[7].prot  collisions  ETV
7	11253 8970 232 211036 1.11 38.91 379 -1.5 1.5 -7.2540856996761 616.40780349323
6	20223 11906 232 211036 1.11 38.91 379 -1.4722746795918 1.4513430531451 -0.050848126907965 411.87520082408
5	32129 7671 232 211036 1.11 38.91 379 36.55 36.55 13852.45 506307.0475
4	39800 11414 232 211036 1.11 38.91 379 140.93872566263 1405.9099512308 293429.90474847 277863587.20025
3	51214 11422 232 211036 1.11 38.91 379 32.043531245463 35.298048086563 12683.054175645 424711.82433183
1	62636 6155 232 211036 1.11 38.91 379 0 0 0 0
0	68791 6534 232 211036 1.11 38.91 379 -1 -1 -379 379
2	75325 6155 232 211036 1.11 38.91 379 0 0 0 0
10	81480 528 5168 205946 2 38 37 0 0 0 0
9	82008 714 5168 205946 2 38 37 0.023297 0.02625 0.968297 0.025349000209
8	82722 491 5168 205946 2 38 37 0 0 0 0
51	83213 12267 234 211038 1.11 38.91 379 -1.5092135990202 1.5122039605915 27.524422822419 488.49376576664
50	95480 12304 234 211038 1.11 38.91 379 -1.4841297256552 1.4672918306232 27.996589998539 345.74540389391
49	107784 8050 234 211038 1.11 38.91 379 36.55 36.55 13852.45 506307.0475
48	115834 11800 234 211038 1.11 38.91 379 110.93872566223 1390.5437239424 282478.4061566 261720927.0758
47	127634 11796 234 211038 1.11 38.91 379 32.037539659779 36.27279369107 12830.364312712 434907.69821453
45	139430 13001 234 211038 1.11 38.91 379 -0.93019995492019 0.01224105552906 -38.314493656152 26.593005638502
44	152431 11764 234 211038 1.11 38.91 379 7.2384818935366 11.03313389469 4079.2353370723 44099.770613147
46	164195 6534 234 211038 1.11 38.91 379 2 2 758 1516
58	170729 15136 832 211080 1.212435850589 38.912434552375 378 0.099998638625 0.100011802612 37.79999750234 3.7799995058353
57	185865 15108 1244 210935 1.297802551073 38.897802477494 377 0.099998639247 0.100011802497 37.699998726975 3.7699997507612
56	200973 10260 832 211080 1.212435850589 38.912434552375 378 2 2 756 1512
55	211233 10245 1244 210935 1.297802551073 38.897802477494 377 2 2 754 1508
54	221478 528 5170 205948 2 38 37 0 0 0 0
53	222006 751 5170 205948 2 38 37 0.023296 0.02625 0.968296 0.025348953616
52	222757 528 5170 205948 2 38 37 2 2 74 148
73	223285 12234 235 211039 1.11 38.91 379 -1.4954488831536 1.4986508830664 34.813619487422 480.09353215008
72	235519 12261 235 211039 1.11 38.91 379 -1.4697266158876 1.4522492473787 35.163244457641 345.02585243516
71	247780 8050 235 211039 1.11 38.91 379 36.55 36.55 13852.45 506307.0475
70	255830 11795 235 211039 1.11 38.91 379 95.938725662231 1378.0004278821 276845.84745027 253474692.19427
69	267625 11794 235 211039 1.11 38.91 379 32.052330667068 36.877965118261 12855.181954351 436707.11708023
67	279419 12901 235 211039 1.11 38.91 379 -0.71375229989005 0.021653895289234 -25.097607538981 12.479370113687
66	292320 11781 235 211039 1.11 38.91 379 8.5575944923823 11.052078083036 4117.0550591589 44797.631297127
68	304101 6534 235 211039 1.11 38.91 379 3 3 1137 3411
80	310635 15100 1312 211004 1.307224601108 38.907224519358 377 0.09999863901 0.100011802784 37.699998718804 3.7699997491251
79	325735 15102 1250 210941 1.297802601108 38.897802519381 377 0.099998639009 0.100011802508 37.699998718827 3.7699997491316
78	340837 10233 1312 211004 1.307224601108 38.907224519358 377 3 3 1131 3393
77	351070 10237 1250 210941 1.297802601108 38.897802519381 377 3 3 1131 3393
76	361307 528 5171 205949 2 38 37 0 0 0 0
75	361835 751 5171 205949 2 38 37 0.023297 0.02625 0.968297 0.025349000209
74	362586 528 5171 205949 2 38 37 3 3 111 333
95	363114 12230 236 211040 1.11 38.91 379 -1.5015734375831 1.5060862754308 40.543199735661 491.48574271319
94	375344 12264 236 211040 1.11 38.91 379 -1.4671620087128 1.4503898313293 40.357895389124 348.56078733757
93	387608 8050 236 211040 1.11 38.91 379 36.55 36.55 13852.45 506307.0475
92	395658 11791 236 211040 1.11 38.91 379 80.938725662231 1364.5955514864 271192.40942116 245340711.74127
91	407449 11791 236 211040 1.11 38.91 379 32.053768425274 37.368614188174 12871.314109078 437893.30102064
89	419240 12941 236 211040 1.11 38.91 379 -0.51398981022567 0.015827613819276 -16.48378717143 5.5690336043392
88	432181 11784 236 211040 1.11 38.91 379 9.41516777781 11.016704109923 4137.7606722027 45204.061713085
90	443965 6534 236 211040 1.11 38.91 379 4 4 1516 6064
102	450499 15496 902 211150 1.235039950658 38.935038638894 378 0.099998638215 0.100011802623 37.79999748879 3.7799995031253
101	465995 15464 1256 210947 1.297802651142 38.897802564129 377 0.099998638838 0.10001180251 37.699998713541 3.7699997480744
100	481459 10628 902 211150 1.235039950658 38.935038638894 378 4 4 1512 6048
99	492087 10227 1256 210947 1.297802651142 38.897802564129 377 4 4 1508 6032
98	502314 528 5172 205950 2 38 37 0 0 0 0
97	502842 751 5172 205950 2 38 37 0.023297 0.02625 0.968297 0.025349000209
96	503593 528 5172 205950 2 38 37 4 4 148 592
117	504121 12590 237 211041 1.11 38.91 379 -1.5284774934293 1.5300606689268 45.273850093636 508.54681639539
116	516711 12642 237 211041 1.11 38.91 379 -1.4661745194502 1.4484846902604 44.043725886731 351.203524739
115	529353 8429 237 211041 1.11 38.91 379 36.55 36.55 13852.45 506307.0475
114	537782 12179 237 211041 1.11 38.91 379 65.938725662231 1350.5468417212 265521.5088212 237330810.03776
113	549961 12167 237 211041 1.11 38.91 379 32.055706074266 37.735397890342 12880.955598945 438611.83840761
111	562128 13245 237 211041 1.11 38.91 379 -0.36691875843487 0.020930842263283 -10.04506882101 2.4811459705002
110	575373 12157 237 211041 1.11 38.91 379 10.056045439303 11.045839638392 4155.0934297579 45562.876070342
112	587530 6913 237 211041 1.11 38.91 379 5 5 1895 9475
124	594443 15472 1178 210869 1.297389300901 38.897389334865 377 0.099998641321 0.100011802795 37.699998834518 3.7699997722679
123	609915 15474 1262 210953 1.297802701177 38.897802611015 377 0.099998638717 0.100011802518 37.699998710392 3.7699997474446
122	625389 10608 1178 210869 1.297389300901 38.897389334865 377 5 5 1885 9425
121	635997 10608 1262 210953 1.297802701177 38.897802611015 377 5 5 1885 9425
120	646605 565 5173 205951 2 38 37 0 0 0 0
119	647170 788 5173 205951 2 38 37 0.023297 0.02625 0.968297 0.025349000209
118	647958 565 5173 205951 2 38 37 5 5 185 925
139	648523 12583 238 211042 1.11 38.91 379 -1.4999727128309 1.5046152762567 47.421972257594 492.87026965963
138	661106 12623 238 211042 1.11 38.91 379 -1.4605505185472 1.4432664526488 46.527784125185 350.49482955233
137	673729 8429 238 211042 1.11 38.91 379 36.55 36.55 13852.45 506307.0475
136	682158 12173 238 211042 1.11 38.91 379 50.93872756958 1336.1619675122 259845.79583653 229477290.27162
135	694331 12168 238 211042 1.11 38.91 379 32.062141353617 37.979377062621 12887.193055468 439075.79228215
133	706499 13244 238 211042 1.11 38.91 379 -0.2448013010169 0.023302097965548 -6.6778937817033 1.0529798579257
132	719743 12181 238 211042 1.11 38.91 379 10.389753792423 11.018853960014 4159.8377338006 45661.594562729
134	731924 6913 238 211042 1.11 38.91 379 6 6 2274 13644
146	738837 15524 970 211218 1.248713050727 38.948711733689 378 0.099998638012 0.100011802791 37.799997483516 3.7799995020695
145	754361 15466 1268 210959 1.297802751212 38.897802659014 377 0.099998638637 0.100011802519 37.699998708356 3.7699997470374
144	769827 10646 970 211218 1.248713050727 38.948711733689 378 6 6 2268 13608
143	780473 10609 1268 210959 1.297802751212 38.897802659014 377 6 6 2262 13572
142	791082 565 5174 205952 2 38 37 0 0 0 0
141	791647 788 5174 205952 2 38 37 0.023297 0.02625 0.968297 0.025349000209
140	792435 565 5174 205952 2 38 37 6 6 222 1332
161	793000 12590 239 211043 1.11 38.91 379 -1.5093935087263 1.5126459354654 49.557646021962 502.2871506919
160	805590 12647 239 211043 1.11 38.91 379 -1.4619692633033 1.4451435680144 48.164795476391 353.23413889534
159	818237 8429 239 211043 1.11 38.91 379 36.55 36.55 13852.45 506307.0475
158	826666 12179 239 211043 1.11 38.91 379 35.938727092743 1321.565158761 254166.31596692 221783584.9821
157	838845 12182 239 211043 1.11 38.91 379 32.060042657261 38.14101402245 12891.281688204 439382.9775572
155	851027 13290 239 211043 1.11 38.91 379 -0.16303470515945 0.024254054050104 -4.5539105776973 0.49974904679917
154	864317 12184 239 211043 1.11 38.91 379 10.600041490347 11.017969585477 4163.5616422649 45741.184613558
156	876501 6913 239 211043 1.11 38.91 379 7 7 2653 18571
168	883414 15511 1040 211288 1.263894100762 38.963892782351 378 0.099998637957 0.100011802791 37.799997482143 3.7799995017946
167	898925 15479 1274 210965 1.297802801246 38.897802707715 377 0.099998638584 0.100011802517 37.699998707023 3.7699997467708
166	914404 10646 1040 211288 1.263894100762 38.963892782351 378 7 7 2646 18522
165	925050 10609 1274 210965 1.297802801246 38.897802707715 377 7 7 2639 18473
164	935659 565 5175 205953 2 38 37 0 0 0 0
163	936224 788 5175 205953 2 38 37 0.023297 0.02625 0.968297 0.025349000209
162	937012 565 5175 205953 2 38 37 7 7 259 1813
22	937577 11820 233 211324 1.11 38.99 380 0 11.456959681132 3843.209457546 41458.259356666
23	949397 12607 233 211324 1.11 38.99 380 -3.4648980189123 0.41048196026368 -111.09879546913 279.2383803544
24	962004 6552 233 211324 1.11 38.99 380 1 1 380 380
25	968556 11821 233 211324 1.11 38.99 380 32.027184001432 35.554019720159 12827.433696756 433428.3708863
26	980377 11823 233 211324 1.11 38.99 380 125.93872566223 1404.5796074163 289477.45854646 272006095.17723
27	992200 8072 233 211324 1.11 38.99 380 36.55 36.55 13889 507642.95
28	1000272 12336 233 211324 1.11 38.99 380 -1.4954736390223 1.4760592276858 18.54484735899 343.65710939218
29	1012608 12299 233 211324 1.11 38.99 380 -1.5555551936108 1.5570065769543 18.36694622924 507.15484486449
30	1024907 528 5169 205947 2 38 37 1 1 37 37
31	1025435 751 5169 205947 2 38 37 0.023297 0.02625 0.968297 0.025349000209
32	1026186 528 5169 205947 2 38 37 0 0 0 0
33	1026714 10237 1238 210929 1.297802501039 38.897802440006 377 1 1 377 377
34	1036951 10237 1238 210929 1.297802501039 38.897802440006 377 1 1 377 377
35	1047188 15106 1238 210929 1.297802501039 38.897802440006 377 0.099998639557 0.100011802491 37.699998739521 3.7699997532704
36	1062294 15106 1238 210929 1.297802501039 38.897802440006 377 0.099998639557 0.100011802491 37.699998739521 3.7699997532704
