file 1254803 1501676170                                         
version 2
run SinusoidalJammingDetail-517-20170802-14:15:46-18208
attr CACCSpacing 20
attr attackAcc -30
attr attackPos 7
attr attackSpeed 150
attr attackStart 30.5
attr attacker 1
attr beaconInterval 0.1
attr configname SinusoidalJammingDetail
attr controller 1
attr datetime 20170802-14:15:46
attr experiment SinusoidalJammingDetail
attr fakeAcc "(1 == 4)"
attr fakePos "(1 == 2)"
attr fakeSpeed "(1 == 3)"
attr inifile omnetpp_517.ini
attr iterationvars "$leaderSpeed=100, $controller=1, $CACCSpacing=20, $sController=\"CACC\", $attacker=1, $attackStart=30.5, $attackSpeed=150, $attackPos=7, $attackAcc=-30, $0=20, $1=0, $nCars=8, $platoonSize=8, $nLanes=1, $beaconInterval=0.1, $priority=2, $packetSize=200, $ploegH=0.5, $leaderHeadway=1.2, $fakeSpeed=(1 == 3), $fakeAcc=(1 == 4), $fakePos=(1 == 2)"
attr iterationvarsf leaderSpeed=100,controller=1,CACCSpacing=20,sController=CACC,attacker=1,attackStart=30.5,attackSpeed=150,attackPos=7,attackAcc=-30,20,0,nCars=8,platoonSize=8,nLanes=1,beaconInterval=0.1,priority=2,packetSize=200,ploegH=0.5,leaderHeadway=1.2,fakeSpeed=(1_==_3),fakeAcc=(1_==_4),fakePos=(1_==_2)-
attr leaderHeadway 1.2
attr leaderSpeed 100
attr measurement "$leaderSpeed=100, $controller=1, $CACCSpacing=20, $sController=\"CACC\", $attacker=1, $attackStart=30.5, $attackSpeed=150, $attackPos=7, $attackAcc=-30, $0=20, $1=0, $nCars=8, $platoonSize=8, $nLanes=1, $beaconInterval=0.1, $priority=2, $packetSize=200, $ploegH=0.5, $leaderHeadway=1.2, $fakeSpeed=(1 == 3), $fakeAcc=(1 == 4), $fakePos=(1 == 2)"
attr nCars 8
attr nLanes 1
attr network scenario
attr packetSize 200
attr platoonSize 8
attr ploegH 0.5
attr priority 2
attr processid 18208
attr repetition 2
attr replication #2
attr resultdir results
attr runnumber 517
attr sController "\"CACC\""
attr seedset 2
param **.coreDebug false
param **.debug false
param **.headway 0.1s
param **.numberOfCars 8
param **.numberOfCarsPerPlatoon 8
param **.numberOfLanes 1
param **.numericController 1
param **.traffic.nCars 8
param **.traffic.nLanes 1
param **.traffic.platoonInsertDistance 20m
param **.traffic.platoonInsertHeadway 0s
param **.traffic.platoonInsertSpeed 100kmph
param **.traffic.platoonInsertTime "1 s"
param **.traffic.platoonLeaderHeadway 1.2s
param **.traffic.platoonSize 8
param **.traffic.platooningVType "\"vtypeauto\""
param **.traffic_type "\"PlatoonsTrafficManager\""
param *.**.nic.mac1609_4.bitrate 6Mbps
param *.**.nic.mac1609_4.txPower 100mW
param *.**.nic.mac1609_4.useServiceChannel false
param *.**.nic.phy80211p.analogueModels "xmldoc(\"config.xml\")"
param *.**.nic.phy80211p.decider "xmldoc(\"config.xml\")"
param *.**.nic.phy80211p.maxTXPower 100mW
param *.**.nic.phy80211p.sensitivity -94dBm
param *.**.nic.phy80211p.thermalNoise -95dBm
param *.**.nic.phy80211p.usePropagationDelay true
param *.**.nic.phy80211p.useThermalNoise true
param *.annotations.draw false
param *.connectionManager.alpha 2.0
param *.connectionManager.carrierFrequency "5.890e9 Hz"
param *.connectionManager.pMax 100mW
param *.connectionManager.sat -94dBm
param *.connectionManager.sendDirect true
param *.manager.autoShutdown true
param *.manager.commandLine "\"sumo --remote-port $port --seed $seed --configuration-file $configFile\""
param *.manager.configFile "\"./sumocfg/freeway.sumo.cfg\""
param *.manager.host "\"localhost\""
param *.manager.margin 25
param *.manager.moduleDisplayString "\"\""
param *.manager.moduleName "\"node\""
param *.manager.moduleType "\"Car\""
param *.manager.updateInterval 0.01s
param *.node[*].appl.attackStart 30.5s
param *.node[*].appl.attackerType 1
param *.node[*].appl.simulationDuration "60 s"
param *.node[*].appl_type "\"SimplePlatooningApp\""
param *.node[*].helper.nCars 8
param *.node[*].helper.nLanes 1
param *.node[*].helper.platoonSize 8
param *.node[*].helper_type "\"PositionHelper\""
param *.node[*].mobility.x 0
param *.node[*].mobility.y 0
param *.node[*].mobility.z 1.895
param *.node[*].prot.attackStart 30.5s
param *.node[*].prot.attackerType 1
param *.node[*].prot.attackingNode 3
param *.node[*].prot.beaconingInterval 0.1s
param *.node[*].prot.fakeAcc "(1 == 4)"
param *.node[*].prot.fakePos "(1 == 2)"
param *.node[*].prot.fakeSpeed "(1 == 3)"
param *.node[*].prot.maliciousAcc "-30 mpss"
param *.node[*].prot.maliciousSpeed 150kmph
param *.node[*].prot.packetSize 200
param *.node[*].prot.priority 2
param *.node[*].prot.shiftX "7 m"
param *.node[*].prot.useControllerAcceleration true
param *.node[*].protocol_type "\"SimplePlatooningBeaconing\""
param *.node[*].scenario.accHeadway 0.1s
param *.node[*].scenario.caccC1 0.5
param *.node[*].scenario.caccOmegaN "0.2 Hz"
param *.node[*].scenario.caccSpacing 20m
param *.node[*].scenario.caccXi 1
param *.node[*].scenario.controller "\"CACC\""
param *.node[*].scenario.engineTau "0.5 s"
param *.node[*].scenario.leaderHeadway 1.2s
param *.node[*].scenario.leaderOscillationFrequency "0.2 Hz"
param *.node[*].scenario.leaderSpeed 100kmph
param *.node[*].scenario.oscillationAmplitude "10 kmph"
param *.node[*].scenario.ploegH 0.5s
param *.node[*].scenario.ploegKd 0.7
param *.node[*].scenario.ploegKp 0.2
param *.node[*].scenario.startOscillating "5 s"
param *.node[*].scenario.useRealisticEngine false
param *.node[*].scenario_type "\"SinusoidalScenario\""
param *.node[*].unicast.packetLossRate 0
param *.obstacles.debug false
param *.playgroundSizeX 65000m
param *.playgroundSizeY 25000m
param *.playgroundSizeZ 50m
param *.world.use2D false
param *.world.useTorus false

vector 0  scenario.node[0].appl  distance  ETV
vector 1  scenario.node[0].appl  relativeSpeed  ETV
vector 2  scenario.node[0].appl  nodeId  ETV
vector 6  scenario.node[0].appl  acceleration  ETV
vector 7  scenario.node[0].appl  controllerAcceleration  ETV
vector 3  scenario.node[0].appl  speed  ETV
vector 4  scenario.node[0].appl  posx  ETV
vector 5  scenario.node[0].appl  posy  ETV
vector 22  scenario.node[1].appl  distance  ETV
vector 23  scenario.node[1].appl  relativeSpeed  ETV
vector 24  scenario.node[1].appl  nodeId  ETV
vector 28  scenario.node[1].appl  acceleration  ETV
vector 29  scenario.node[1].appl  controllerAcceleration  ETV
vector 25  scenario.node[1].appl  speed  ETV
vector 26  scenario.node[1].appl  posx  ETV
vector 27  scenario.node[1].appl  posy  ETV
vector 44  scenario.node[2].appl  distance  ETV
vector 45  scenario.node[2].appl  relativeSpeed  ETV
vector 46  scenario.node[2].appl  nodeId  ETV
vector 50  scenario.node[2].appl  acceleration  ETV
vector 51  scenario.node[2].appl  controllerAcceleration  ETV
vector 47  scenario.node[2].appl  speed  ETV
vector 48  scenario.node[2].appl  posx  ETV
vector 49  scenario.node[2].appl  posy  ETV
vector 66  scenario.node[3].appl  distance  ETV
vector 67  scenario.node[3].appl  relativeSpeed  ETV
vector 68  scenario.node[3].appl  nodeId  ETV
vector 72  scenario.node[3].appl  acceleration  ETV
vector 73  scenario.node[3].appl  controllerAcceleration  ETV
vector 69  scenario.node[3].appl  speed  ETV
vector 70  scenario.node[3].appl  posx  ETV
vector 71  scenario.node[3].appl  posy  ETV
vector 88  scenario.node[4].appl  distance  ETV
vector 89  scenario.node[4].appl  relativeSpeed  ETV
vector 90  scenario.node[4].appl  nodeId  ETV
vector 94  scenario.node[4].appl  acceleration  ETV
vector 95  scenario.node[4].appl  controllerAcceleration  ETV
vector 91  scenario.node[4].appl  speed  ETV
vector 92  scenario.node[4].appl  posx  ETV
vector 93  scenario.node[4].appl  posy  ETV
vector 110  scenario.node[5].appl  distance  ETV
vector 111  scenario.node[5].appl  relativeSpeed  ETV
vector 112  scenario.node[5].appl  nodeId  ETV
vector 116  scenario.node[5].appl  acceleration  ETV
vector 117  scenario.node[5].appl  controllerAcceleration  ETV
vector 113  scenario.node[5].appl  speed  ETV
vector 114  scenario.node[5].appl  posx  ETV
vector 115  scenario.node[5].appl  posy  ETV
vector 132  scenario.node[6].appl  distance  ETV
vector 133  scenario.node[6].appl  relativeSpeed  ETV
vector 134  scenario.node[6].appl  nodeId  ETV
vector 138  scenario.node[6].appl  acceleration  ETV
vector 139  scenario.node[6].appl  controllerAcceleration  ETV
vector 135  scenario.node[6].appl  speed  ETV
vector 136  scenario.node[6].appl  posx  ETV
vector 137  scenario.node[6].appl  posy  ETV
vector 154  scenario.node[7].appl  distance  ETV
vector 155  scenario.node[7].appl  relativeSpeed  ETV
vector 156  scenario.node[7].appl  nodeId  ETV
vector 160  scenario.node[7].appl  acceleration  ETV
vector 161  scenario.node[7].appl  controllerAcceleration  ETV
vector 157  scenario.node[7].appl  speed  ETV
vector 158  scenario.node[7].appl  posx  ETV
vector 159  scenario.node[7].appl  posy  ETV
vector 168  scenario.node[7].prot  frontDelay  ETV
vector 166  scenario.node[7].prot  frontDelayId  ETV
vector 146  scenario.node[6].prot  frontDelay  ETV
vector 144  scenario.node[6].prot  frontDelayId  ETV
vector 35  scenario.node[1].prot  leaderDelay  ETV
vector 33  scenario.node[1].prot  leaderDelayId  ETV
vector 36  scenario.node[1].prot  frontDelay  ETV
vector 34  scenario.node[1].prot  frontDelayId  ETV
vector 57  scenario.node[2].prot  leaderDelay  ETV
vector 55  scenario.node[2].prot  leaderDelayId  ETV
vector 79  scenario.node[3].prot  leaderDelay  ETV
vector 77  scenario.node[3].prot  leaderDelayId  ETV
vector 101  scenario.node[4].prot  leaderDelay  ETV
vector 99  scenario.node[4].prot  leaderDelayId  ETV
vector 123  scenario.node[5].prot  leaderDelay  ETV
vector 121  scenario.node[5].prot  leaderDelayId  ETV
vector 145  scenario.node[6].prot  leaderDelay  ETV
vector 143  scenario.node[6].prot  leaderDelayId  ETV
vector 167  scenario.node[7].prot  leaderDelay  ETV
vector 165  scenario.node[7].prot  leaderDelayId  ETV
vector 102  scenario.node[4].prot  frontDelay  ETV
vector 100  scenario.node[4].prot  frontDelayId  ETV
vector 80  scenario.node[3].prot  frontDelay  ETV
vector 78  scenario.node[3].prot  frontDelayId  ETV
vector 124  scenario.node[5].prot  frontDelay  ETV
vector 122  scenario.node[5].prot  frontDelayId  ETV
vector 58  scenario.node[2].prot  frontDelay  ETV
vector 56  scenario.node[2].prot  frontDelayId  ETV
vector 8  scenario.node[0].prot  nodeId  ETV
vector 9  scenario.node[0].prot  busyTime  ETV
vector 10  scenario.node[0].prot  collisions  ETV
vector 30  scenario.node[1].prot  nodeId  ETV
vector 31  scenario.node[1].prot  busyTime  ETV
vector 32  scenario.node[1].prot  collisions  ETV
vector 52  scenario.node[2].prot  nodeId  ETV
vector 53  scenario.node[2].prot  busyTime  ETV
vector 54  scenario.node[2].prot  collisions  ETV
vector 74  scenario.node[3].prot  nodeId  ETV
vector 75  scenario.node[3].prot  busyTime  ETV
vector 76  scenario.node[3].prot  collisions  ETV
vector 96  scenario.node[4].prot  nodeId  ETV
vector 97  scenario.node[4].prot  busyTime  ETV
vector 98  scenario.node[4].prot  collisions  ETV
vector 118  scenario.node[5].prot  nodeId  ETV
vector 119  scenario.node[5].prot  busyTime  ETV
vector 120  scenario.node[5].prot  collisions  ETV
vector 140  scenario.node[6].prot  nodeId  ETV
vector 141  scenario.node[6].prot  busyTime  ETV
vector 142  scenario.node[6].prot  collisions  ETV
vector 162  scenario.node[7].prot  nodeId  ETV
vector 163  scenario.node[7].prot  busyTime  ETV
vector 164  scenario.node[7].prot  collisions  ETV
7	11253 10427 232 245069 1.11 45.01 440 -1.5 1.5 -13.178029469626 721.55473831668
6	21680 13865 232 245069 1.11 45.01 440 -1.4722746794938 1.4513433675031 -12.85712987122 490.03240346273
5	35545 8952 232 245069 1.11 45.01 440 36.55 36.55 16082 587797.1
4	44497 13306 232 245069 1.11 45.01 440 205.67107315037 1429.3059434645 360268.46044538 350044071.22559
3	57803 13304 232 245069 1.11 45.01 440 26.487967210471 29.742492528104 12263.678473951 342141.66054737
1	71107 7192 232 245069 1.11 45.01 440 0 0 0 0
0	78299 7632 232 245069 1.11 45.01 440 -1 -1 -440 440
2	85931 7192 232 245069 1.11 45.01 440 0 0 0 0
10	93123 633 5168 244992 2 45 44 0 0 0 0
9	93756 854 5168 244992 2 45 44 0.023297 0.02625 1.152047 0.030172437709
8	94610 589 5168 244992 2 45 44 0 0 0 0
51	95199 14321 234 245071 1.11 45.01 440 -1.4917898288586 1.4990053105845 15.781962792286 480.32842460047
50	109520 14373 234 245071 1.11 45.01 440 -1.4755502027491 1.441527009327 16.532712993479 342.43376483073
49	123893 9392 234 245071 1.11 45.01 440 36.55 36.55 16082 587797.1
48	133285 13744 234 245071 1.11 45.01 440 157.67107315063 1410.2749948667 340945.1604062 321109769.3319
47	147029 13751 234 245071 1.11 45.01 440 26.486010879124 30.708129586775 12554.39665744 358929.19340759
45	160780 15023 234 245071 1.11 45.01 440 -0.93449442760168 0.01657816441201 -91.960614735121 74.587911516994
44	175803 13741 234 245071 1.11 45.01 440 10.853530291902 20.045292160269 8311.843122019 159480.40915324
46	189544 7632 234 245071 1.11 45.01 440 2 2 880 1760
58	197176 17597 1312 245037 1.302598202214 45.002608921784 438 0.099999231688 0.100012763807 43.800010480788 4.380002097957
57	214773 17630 1040 245321 1.262218561772 45.062215698299 439 0.099999221681 0.100012762682 43.899996897745 4.3899993811922
56	232403 11935 1312 245037 1.302598202214 45.002608921784 438 2 2 876 1752
55	244338 11966 1040 245321 1.262218561772 45.062215698299 439 2 2 878 1756
54	256304 633 5170 244994 2 45 44 0 0 0 0
53	256937 898 5170 244994 2 45 44 0.023297 0.02625 1.152047 0.030172437709
52	257835 633 5170 244994 2 45 44 2 2 88 176
73	258468 14252 235 245072 1.11 45.01 440 -1.5133685791054 1.5078355992436 23.257423054755 497.74580748443
72	272720 14383 235 245072 1.11 45.01 440 -1.4653396891678 1.4362317067054 24.111253232196 343.51382168784
71	287103 9392 235 245072 1.11 45.01 440 36.55 36.55 16082 587797.1
70	296495 13741 235 245072 1.11 45.01 440 133.67108078003 1393.5600171085 330742.6443756 305917627.26218
69	310236 13751 235 245072 1.11 45.01 440 26.494697527224 31.308460737422 12627.512394046 363389.69080787
67	323987 15102 235 245072 1.11 45.01 440 -0.82012835150806 0.011230165382802 -73.281063735606 50.242392865117
66	339089 13739 235 245072 1.11 45.01 440 12.730181802674 20.035282165289 8443.9783453313 163413.81925136
68	352828 7632 235 245072 1.11 45.01 440 3 3 1320 3960
80	360460 17637 1176 245457 1.287874801937 45.087884865108 439 0.099999226927 0.100012763801 43.900009824389 4.3900019666771
79	378097 17617 1046 245327 1.262218641827 45.062215753927 439 0.099999221427 0.100012762673 43.899996873318 4.3899993763068
78	395714 11968 1176 245457 1.287874801937 45.087884865108 439 3 3 1317 3951
77	407682 11952 1046 245327 1.262218641827 45.062215753927 439 3 3 1317 3951
76	419634 633 5171 244995 2 45 44 0 0 0 0
75	420267 898 5171 244995 2 45 44 0.023297 0.02625 1.152047 0.030172437709
74	421165 633 5171 244995 2 45 44 3 3 132 396
95	421798 14338 236 245073 1.11 45.01 440 -1.4996309275275 1.5 30.491040557224 492.36740091446
94	436136 14374 236 245073 1.11 45.01 440 -1.4560433271356 1.4289148559932 31.323219176524 342.84637806753
93	450510 9392 236 245073 1.11 45.01 440 36.55 36.55 16082 587797.1
92	459902 13748 236 245073 1.11 45.01 440 109.67108078003 1375.1825403408 320433.15910114 290933683.99788
91	473650 13748 236 245073 1.11 45.01 440 26.50394658703 31.80140598157 12683.989966037 366903.80182777
89	487398 15098 236 245073 1.11 45.01 440 -0.72303618638592 0.011890480761632 -56.718684523664 32.461771427237
88	502496 13723 236 245073 1.11 45.01 440 14.391900942931 20.022254960667 8550.6148259014 166895.41935004
90	516219 7632 236 245073 1.11 45.01 440 4 4 1760 7040
102	523851 18068 1108 245389 1.276580721882 45.076590815083 439 0.099999227195 0.100012763824 43.900009854419 4.3900019726831
101	541919 18075 1052 245333 1.262218721883 45.062215815108 439 0.099999221187 0.10001276267 43.899996854443 4.3899993725318
100	559994 12400 1108 245389 1.276580721882 45.076590815083 439 4 4 1756 7024
99	572394 11968 1052 245333 1.262218721883 45.062215815108 439 4 4 1756 7024
98	584362 633 5172 244996 2 45 44 0 0 0 0
97	584995 898 5172 244996 2 45 44 0.023297 0.02625 1.152047 0.030172437709
96	585893 633 5172 244996 2 45 44 4 4 176 704
117	586526 14134 237 245074 1.11 45.01 440 -1.5082275563487 1.5066950656995 36.933549413178 502.3163572336
116	600660 14823 237 245074 1.11 45.01 440 -1.4565901731451 1.4321005833324 37.648985375554 347.42038230009
115	615483 9832 237 245074 1.11 45.01 440 36.55 36.55 16082 587797.1
114	625315 14200 237 245074 1.11 45.01 440 85.671076965332 1355.4165014181 310050.59507272 276252192.20333
113	639515 14176 237 245074 1.11 45.01 440 26.498939576024 32.195502111098 12726.551214309 369597.35534405
111	653691 15374 237 245074 1.11 45.01 440 -0.63073097932856 0.03221480794419 -42.87448046413 19.5538150179
110	669065 14193 237 245074 1.11 45.01 440 15.778696921134 20.019410374198 8623.4152533818 169389.16709719
112	683258 8072 237 245074 1.11 45.01 440 5 5 2200 11000
124	691330 18077 1244 245525 1.297504962048 45.097501992003 439 0.099999220467 0.100012763424 43.899996791173 4.3899993598837
123	709407 18053 1058 245339 1.262218801938 45.062215880935 439 0.099999220976 0.100012762663 43.899996840215 4.3899993696862
122	727460 12404 1244 245525 1.297504962048 45.097501992003 439 5 5 2195 10975
121	739864 12391 1058 245339 1.262218801938 45.062215880935 439 5 5 2195 10975
120	752255 677 5173 244997 2 45 44 0 0 0 0
119	752932 942 5173 244997 2 45 44 0.023297 0.02625 1.152047 0.030172437709
118	753874 677 5173 244997 2 45 44 5 5 220 1100
139	754551 14751 238 245075 1.11 45.01 440 -1.4953972047183 1.4959038795227 42.265701312238 494.3055973179
138	769302 14816 238 245075 1.11 45.01 440 -1.4603980363539 1.4350229186363 43.075958942152 350.62536211293
137	784118 9832 238 245075 1.11 45.01 440 36.55 36.55 16082 587797.1
136	793950 14175 238 245075 1.11 45.01 440 61.671076965332 1334.5275980399 299607.35910072 261914037.78853
135	808125 14188 238 245075 1.11 45.01 440 26.497729413918 32.524267051388 12757.85161236 371608.40402513
133	822313 15580 238 245075 1.11 45.01 440 -0.53790543716157 0.010619119393606 -31.676887903902 11.767767281419
132	837893 14169 238 245075 1.11 45.01 440 16.899701757403 20.027592323733 8683.8619799622 171572.10968479
134	852062 8072 238 245075 1.11 45.01 440 6 6 2640 15840
146	860134 18075 970 245251 1.247596081439 45.047593458969 439 0.099999224162 0.100012762725 43.899997138748 4.3899994293968
145	878209 18070 1064 245345 1.262218881993 45.062215950522 439 0.099999220795 0.100012762667 43.899996829747 4.3899993675926
144	896279 12405 970 245251 1.247596081439 45.047593458969 439 6 6 2634 15804
143	908684 12406 1064 245345 1.262218881993 45.062215950522 439 6 6 2634 15804
142	921090 677 5174 244998 2 45 44 0 0 0 0
141	921767 942 5174 244998 2 45 44 0.023297 0.02625 1.152047 0.030172437709
140	922709 677 5174 244998 2 45 44 6 6 264 1584
161	923386 14735 239 245076 1.11 45.01 440 -1.4856633883549 1.486643172463 46.476725020003 483.02519241213
160	938121 14810 239 245076 1.11 45.01 440 -1.4555086071685 1.4298755959022 47.482473690109 349.5070017699
159	952931 9832 239 245076 1.11 45.01 440 36.55 36.55 16082 587797.1
158	962763 14184 239 245076 1.11 45.01 440 37.671077919006 1312.7684805049 289125.99991044 247978863.94353
157	976947 14187 239 245076 1.11 45.01 440 26.50400472583 32.794425473966 12780.414936107 373070.99061905
155	991134 15615 239 245076 1.11 45.01 440 -0.43890278820969 0.0086296017177645 -22.994083336523 6.62428300182
154	1006749 14196 239 245076 1.11 45.01 440 17.767930098255 20.013502934621 8721.810456755 172975.32932545
156	1020945 8072 239 245076 1.11 45.01 440 7 7 3080 21560
168	1029017 18063 832 245113 1.212137841273 45.012135247119 439 0.099999224668 0.100012762793 43.899997167064 4.3899994350529
167	1047080 18053 1070 245351 1.262218962049 45.062216023029 439 0.099999220648 0.100012762669 43.899996822198 4.3899993660828
166	1065133 12401 832 245113 1.212137841273 45.012135247119 439 7 7 3073 21511
165	1077534 12392 1070 245351 1.262218962049 45.062216023029 439 7 7 3073 21511
164	1089926 677 5175 244999 2 45 44 0 0 0 0
163	1090603 942 5175 244999 2 45 44 0.023297 0.02625 1.152047 0.030172437709
162	1091545 677 5175 244999 2 45 44 7 7 308 2156
22	1092222 13764 233 245558 1.11 45.1 441 0 20.519816481083 7497.2712808281 143136.64344104
23	1105986 14831 233 245558 1.11 45.1 441 -3.4575324387855 0.38539520787729 -200.92377520432 473.90065729739
24	1120817 7649 233 245558 1.11 45.1 441 1 1 441 441
25	1128466 13776 233 245558 1.11 45.1 441 26.48258984786 29.988304559494 12491.220390304 354274.95626643
26	1142242 13774 233 245558 1.11 45.1 441 181.67107315063 1427.6964288581 352442.8625812 338463143.4613
27	1156016 9413 233 245558 1.11 45.1 441 36.55 36.55 16118.55 589133.0025
28	1165429 14430 233 245558 1.11 45.1 441 -1.4845166976844 1.4492363479558 9.0741869667887 337.30974139596
29	1179859 13638 233 245558 1.11 45.1 441 -1.5201885305329 1.5215379202346 8.281918863039 489.44767745912
30	1193497 633 5169 244993 2 45 44 1 1 44 44
31	1194130 898 5169 244993 2 45 44 0.023296 0.02625 1.152046 0.030172391116
32	1195028 633 5169 244993 2 45 44 0 0 0 0
33	1195661 11955 1034 245315 1.262218481716 45.062215648924 439 1 1 439 439
34	1207616 11955 1034 245315 1.262218481716 45.062215648924 439 1 1 439 439
35	1219571 17616 1034 245315 1.262218481716 45.062215648924 439 0.099999221926 0.100012762705 43.899996928426 4.3899993873284
36	1237187 17616 1034 245315 1.262218481716 45.062215648924 439 0.099999221926 0.100012762705 43.899996928426 4.3899993873284
