file 974028 1501603010                                          
version 2
run SinusoidalJammingDetail-502-20170801-17:56:30-93098
attr CACCSpacing 7
attr attackAcc -30
attr attackPos 7
attr attackSpeed 150
attr attackStart 32
attr attacker 1
attr beaconInterval 0.1
attr configname SinusoidalJammingDetail
attr controller 1
attr datetime 20170801-17:56:30
attr experiment SinusoidalJammingDetail
attr fakeAcc "(1 == 4)"
attr fakePos "(1 == 2)"
attr fakeSpeed "(1 == 3)"
attr inifile omnetpp_502.ini
attr iterationvars "$leaderSpeed=120, $controller=1, $CACCSpacing=7, $sController=\"CACC\", $attacker=1, $attackStart=32, $attackSpeed=150, $attackPos=7, $attackAcc=-30, $0=7, $1=0, $nCars=8, $platoonSize=8, $nLanes=1, $beaconInterval=0.1, $priority=2, $packetSize=200, $ploegH=0.5, $leaderHeadway=1.2, $fakeSpeed=(1 == 3), $fakeAcc=(1 == 4), $fakePos=(1 == 2)"
attr iterationvarsf leaderSpeed=120,controller=1,CACCSpacing=7,sController=CACC,attacker=1,attackStart=32,attackSpeed=150,attackPos=7,attackAcc=-30,7,0,nCars=8,platoonSize=8,nLanes=1,beaconInterval=0.1,priority=2,packetSize=200,ploegH=0.5,leaderHeadway=1.2,fakeSpeed=(1_==_3),fakeAcc=(1_==_4),fakePos=(1_==_2)-
attr leaderHeadway 1.2
attr leaderSpeed 120
attr measurement "$leaderSpeed=120, $controller=1, $CACCSpacing=7, $sController=\"CACC\", $attacker=1, $attackStart=32, $attackSpeed=150, $attackPos=7, $attackAcc=-30, $0=7, $1=0, $nCars=8, $platoonSize=8, $nLanes=1, $beaconInterval=0.1, $priority=2, $packetSize=200, $ploegH=0.5, $leaderHeadway=1.2, $fakeSpeed=(1 == 3), $fakeAcc=(1 == 4), $fakePos=(1 == 2)"
attr nCars 8
attr nLanes 1
attr network scenario
attr packetSize 200
attr platoonSize 8
attr ploegH 0.5
attr priority 2
attr processid 93098
attr repetition 2
attr replication #2
attr resultdir results
attr runnumber 502
attr sController "\"CACC\""
attr seedset 2
param **.coreDebug false
param **.debug false
param **.headway 0.1s
param **.numberOfCars 8
param **.numberOfCarsPerPlatoon 8
param **.numberOfLanes 1
param **.numericController 1
param **.traffic.nCars 8
param **.traffic.nLanes 1
param **.traffic.platoonInsertDistance 7m
param **.traffic.platoonInsertHeadway 0s
param **.traffic.platoonInsertSpeed 120kmph
param **.traffic.platoonInsertTime "1 s"
param **.traffic.platoonLeaderHeadway 1.2s
param **.traffic.platoonSize 8
param **.traffic.platooningVType "\"vtypeauto\""
param **.traffic_type "\"PlatoonsTrafficManager\""
param *.**.nic.mac1609_4.bitrate 6Mbps
param *.**.nic.mac1609_4.txPower 100mW
param *.**.nic.mac1609_4.useServiceChannel false
param *.**.nic.phy80211p.analogueModels "xmldoc(\"config.xml\")"
param *.**.nic.phy80211p.decider "xmldoc(\"config.xml\")"
param *.**.nic.phy80211p.maxTXPower 100mW
param *.**.nic.phy80211p.sensitivity -94dBm
param *.**.nic.phy80211p.thermalNoise -95dBm
param *.**.nic.phy80211p.usePropagationDelay true
param *.**.nic.phy80211p.useThermalNoise true
param *.annotations.draw false
param *.connectionManager.alpha 2.0
param *.connectionManager.carrierFrequency "5.890e9 Hz"
param *.connectionManager.pMax 100mW
param *.connectionManager.sat -94dBm
param *.connectionManager.sendDirect true
param *.manager.autoShutdown true
param *.manager.commandLine "\"sumo --remote-port $port --seed $seed --configuration-file $configFile\""
param *.manager.configFile "\"./sumocfg/freeway.sumo.cfg\""
param *.manager.host "\"localhost\""
param *.manager.margin 25
param *.manager.moduleDisplayString "\"\""
param *.manager.moduleName "\"node\""
param *.manager.moduleType "\"Car\""
param *.manager.updateInterval 0.01s
param *.node[*].appl.attackStart 32s
param *.node[*].appl.attackerType 1
param *.node[*].appl.simulationDuration "60 s"
param *.node[*].appl_type "\"SimplePlatooningApp\""
param *.node[*].helper.nCars 8
param *.node[*].helper.nLanes 1
param *.node[*].helper.platoonSize 8
param *.node[*].helper_type "\"PositionHelper\""
param *.node[*].mobility.x 0
param *.node[*].mobility.y 0
param *.node[*].mobility.z 1.895
param *.node[*].prot.attackStart 32s
param *.node[*].prot.attackerType 1
param *.node[*].prot.attackingNode 3
param *.node[*].prot.beaconingInterval 0.1s
param *.node[*].prot.fakeAcc "(1 == 4)"
param *.node[*].prot.fakePos "(1 == 2)"
param *.node[*].prot.fakeSpeed "(1 == 3)"
param *.node[*].prot.maliciousAcc "-30 mpss"
param *.node[*].prot.maliciousSpeed 150kmph
param *.node[*].prot.packetSize 200
param *.node[*].prot.priority 2
param *.node[*].prot.shiftX "7 m"
param *.node[*].prot.useControllerAcceleration true
param *.node[*].protocol_type "\"SimplePlatooningBeaconing\""
param *.node[*].scenario.accHeadway 0.1s
param *.node[*].scenario.caccC1 0.5
param *.node[*].scenario.caccOmegaN "0.2 Hz"
param *.node[*].scenario.caccSpacing 7m
param *.node[*].scenario.caccXi 1
param *.node[*].scenario.controller "\"CACC\""
param *.node[*].scenario.engineTau "0.5 s"
param *.node[*].scenario.leaderHeadway 1.2s
param *.node[*].scenario.leaderOscillationFrequency "0.2 Hz"
param *.node[*].scenario.leaderSpeed 120kmph
param *.node[*].scenario.oscillationAmplitude "10 kmph"
param *.node[*].scenario.ploegH 0.5s
param *.node[*].scenario.ploegKd 0.7
param *.node[*].scenario.ploegKp 0.2
param *.node[*].scenario.startOscillating "5 s"
param *.node[*].scenario.useRealisticEngine false
param *.node[*].scenario_type "\"SinusoidalScenario\""
param *.node[*].unicast.packetLossRate 0
param *.obstacles.debug false
param *.playgroundSizeX 65000m
param *.playgroundSizeY 25000m
param *.playgroundSizeZ 50m
param *.world.use2D false
param *.world.useTorus false

vector 0  scenario.node[0].appl  distance  ETV
vector 1  scenario.node[0].appl  relativeSpeed  ETV
vector 2  scenario.node[0].appl  nodeId  ETV
vector 6  scenario.node[0].appl  acceleration  ETV
vector 7  scenario.node[0].appl  controllerAcceleration  ETV
vector 3  scenario.node[0].appl  speed  ETV
vector 4  scenario.node[0].appl  posx  ETV
vector 5  scenario.node[0].appl  posy  ETV
vector 22  scenario.node[1].appl  distance  ETV
vector 23  scenario.node[1].appl  relativeSpeed  ETV
vector 24  scenario.node[1].appl  nodeId  ETV
vector 28  scenario.node[1].appl  acceleration  ETV
vector 29  scenario.node[1].appl  controllerAcceleration  ETV
vector 25  scenario.node[1].appl  speed  ETV
vector 26  scenario.node[1].appl  posx  ETV
vector 27  scenario.node[1].appl  posy  ETV
vector 44  scenario.node[2].appl  distance  ETV
vector 45  scenario.node[2].appl  relativeSpeed  ETV
vector 46  scenario.node[2].appl  nodeId  ETV
vector 50  scenario.node[2].appl  acceleration  ETV
vector 51  scenario.node[2].appl  controllerAcceleration  ETV
vector 47  scenario.node[2].appl  speed  ETV
vector 48  scenario.node[2].appl  posx  ETV
vector 49  scenario.node[2].appl  posy  ETV
vector 66  scenario.node[3].appl  distance  ETV
vector 67  scenario.node[3].appl  relativeSpeed  ETV
vector 68  scenario.node[3].appl  nodeId  ETV
vector 72  scenario.node[3].appl  acceleration  ETV
vector 73  scenario.node[3].appl  controllerAcceleration  ETV
vector 69  scenario.node[3].appl  speed  ETV
vector 70  scenario.node[3].appl  posx  ETV
vector 71  scenario.node[3].appl  posy  ETV
vector 88  scenario.node[4].appl  distance  ETV
vector 89  scenario.node[4].appl  relativeSpeed  ETV
vector 90  scenario.node[4].appl  nodeId  ETV
vector 94  scenario.node[4].appl  acceleration  ETV
vector 95  scenario.node[4].appl  controllerAcceleration  ETV
vector 91  scenario.node[4].appl  speed  ETV
vector 92  scenario.node[4].appl  posx  ETV
vector 93  scenario.node[4].appl  posy  ETV
vector 110  scenario.node[5].appl  distance  ETV
vector 111  scenario.node[5].appl  relativeSpeed  ETV
vector 112  scenario.node[5].appl  nodeId  ETV
vector 116  scenario.node[5].appl  acceleration  ETV
vector 117  scenario.node[5].appl  controllerAcceleration  ETV
vector 113  scenario.node[5].appl  speed  ETV
vector 114  scenario.node[5].appl  posx  ETV
vector 115  scenario.node[5].appl  posy  ETV
vector 132  scenario.node[6].appl  distance  ETV
vector 133  scenario.node[6].appl  relativeSpeed  ETV
vector 134  scenario.node[6].appl  nodeId  ETV
vector 138  scenario.node[6].appl  acceleration  ETV
vector 139  scenario.node[6].appl  controllerAcceleration  ETV
vector 135  scenario.node[6].appl  speed  ETV
vector 136  scenario.node[6].appl  posx  ETV
vector 137  scenario.node[6].appl  posy  ETV
vector 154  scenario.node[7].appl  distance  ETV
vector 155  scenario.node[7].appl  relativeSpeed  ETV
vector 156  scenario.node[7].appl  nodeId  ETV
vector 160  scenario.node[7].appl  acceleration  ETV
vector 161  scenario.node[7].appl  controllerAcceleration  ETV
vector 157  scenario.node[7].appl  speed  ETV
vector 158  scenario.node[7].appl  posx  ETV
vector 159  scenario.node[7].appl  posy  ETV
vector 168  scenario.node[7].prot  frontDelay  ETV
vector 166  scenario.node[7].prot  frontDelayId  ETV
vector 146  scenario.node[6].prot  frontDelay  ETV
vector 144  scenario.node[6].prot  frontDelayId  ETV
vector 35  scenario.node[1].prot  leaderDelay  ETV
vector 33  scenario.node[1].prot  leaderDelayId  ETV
vector 36  scenario.node[1].prot  frontDelay  ETV
vector 34  scenario.node[1].prot  frontDelayId  ETV
vector 57  scenario.node[2].prot  leaderDelay  ETV
vector 55  scenario.node[2].prot  leaderDelayId  ETV
vector 79  scenario.node[3].prot  leaderDelay  ETV
vector 77  scenario.node[3].prot  leaderDelayId  ETV
vector 101  scenario.node[4].prot  leaderDelay  ETV
vector 99  scenario.node[4].prot  leaderDelayId  ETV
vector 123  scenario.node[5].prot  leaderDelay  ETV
vector 121  scenario.node[5].prot  leaderDelayId  ETV
vector 145  scenario.node[6].prot  leaderDelay  ETV
vector 143  scenario.node[6].prot  leaderDelayId  ETV
vector 167  scenario.node[7].prot  leaderDelay  ETV
vector 165  scenario.node[7].prot  leaderDelayId  ETV
vector 102  scenario.node[4].prot  frontDelay  ETV
vector 100  scenario.node[4].prot  frontDelayId  ETV
vector 80  scenario.node[3].prot  frontDelay  ETV
vector 78  scenario.node[3].prot  frontDelayId  ETV
vector 124  scenario.node[5].prot  frontDelay  ETV
vector 122  scenario.node[5].prot  frontDelayId  ETV
vector 58  scenario.node[2].prot  frontDelay  ETV
vector 56  scenario.node[2].prot  frontDelayId  ETV
vector 8  scenario.node[0].prot  nodeId  ETV
vector 9  scenario.node[0].prot  busyTime  ETV
vector 10  scenario.node[0].prot  collisions  ETV
vector 30  scenario.node[1].prot  nodeId  ETV
vector 31  scenario.node[1].prot  busyTime  ETV
vector 32  scenario.node[1].prot  collisions  ETV
vector 52  scenario.node[2].prot  nodeId  ETV
vector 53  scenario.node[2].prot  busyTime  ETV
vector 54  scenario.node[2].prot  collisions  ETV
vector 74  scenario.node[3].prot  nodeId  ETV
vector 75  scenario.node[3].prot  busyTime  ETV
vector 76  scenario.node[3].prot  collisions  ETV
vector 96  scenario.node[4].prot  nodeId  ETV
vector 97  scenario.node[4].prot  busyTime  ETV
vector 98  scenario.node[4].prot  collisions  ETV
vector 118  scenario.node[5].prot  nodeId  ETV
vector 119  scenario.node[5].prot  busyTime  ETV
vector 120  scenario.node[5].prot  collisions  ETV
vector 140  scenario.node[6].prot  nodeId  ETV
vector 141  scenario.node[6].prot  busyTime  ETV
vector 142  scenario.node[6].prot  collisions  ETV
vector 162  scenario.node[7].prot  nodeId  ETV
vector 163  scenario.node[7].prot  busyTime  ETV
vector 164  scenario.node[7].prot  collisions  ETV
7	11232 8180 232 190960 1.11 35.31 343 -1.5 1.5 -8.6779559958661 546.10883058508
6	19412 10767 232 190960 1.11 35.31 343 -1.4722746795918 1.4513407705138 -12.2278693613 366.70147146699
5	30179 6915 232 190960 1.11 35.31 343 36.55 36.55 12536.65 458214.5575
4	37094 10308 232 190960 1.11 35.31 343 115.22663612406 1259.0341362814 236140.18261452 200188099.18621
3	47402 10308 232 190960 1.11 35.31 343 32.043531245463 35.298048086563 11470.976610665 383880.98101575
1	57710 5543 232 190960 1.11 35.31 343 0 0 0 0
0	63253 5886 232 190960 1.11 35.31 343 -1 -1 -343 343
2	69139 5543 232 190960 1.11 35.31 343 0 0 0 0
10	74682 483 5168 189212 2 35 34 0 0 0 0
9	75165 654 5168 189212 2 35 34 0.023297 0.02625 0.889547 0.023281812709
8	75819 449 5168 189212 2 35 34 0 0 0 0
51	76268 11011 234 190962 1.11 35.31 343 -1.4963007030882 1.49671546488 35.238882292978 493.89563679576
50	87279 11041 234 190962 1.11 35.31 343 -1.4778825378116 1.4526090817121 33.953333594727 354.88151970564
49	98320 7258 234 190962 1.11 35.31 343 36.55 36.55 12536.65 458214.5575
48	105578 10646 234 190962 1.11 35.31 343 93.226636123657 1244.1441389227 228658.25743615 190126803.51887
47	116224 10649 234 190962 1.11 35.31 343 32.042284524887 36.715092821535 11543.69456767 388903.16539739
45	126873 11695 234 190962 1.11 35.31 343 -0.35028456949826 0.017598430697966 -3.5955749287862 0.87624361424084
44	138568 10643 234 190962 1.11 35.31 343 6.6901963487885 7.0458890126319 2400.5511304373 16801.217691398
46	149211 5886 234 190962 1.11 35.31 343 2 2 686 1372
58	155097 13617 1312 190928 1.30260946768 35.302606583561 341 0.099998756126 0.100011809858 34.100008923105 3.4100017895214
57	168714 13624 1040 190655 1.262217174144 35.262214294181 341 0.099998756646 0.100011809784 34.099995927261 3.4099991902152
56	182338 9222 1312 190928 1.30260946768 35.302606583561 341 2 2 682 1364
55	191560 9223 1040 190655 1.262217174144 35.262214294181 341 2 2 682 1364
54	200783 483 5170 189214 2 35 34 0 0 0 0
53	201266 688 5170 189214 2 35 34 0.023297 0.02625 0.889547 0.023281812709
52	201954 483 5170 189214 2 35 34 2 2 68 136
73	202437 11019 235 190963 1.11 35.31 343 -1.5144504377981 1.5154441641397 38.602289869729 507.86265999447
72	213456 11055 235 190963 1.11 35.31 343 -1.4663369221822 1.4406243158554 35.877164535715 351.6589071121
71	224511 7258 235 190963 1.11 35.31 343 36.55 36.55 12536.65 458214.5575
70	231769 10659 235 190963 1.11 35.31 343 82.22663230896 1233.2788038973 224884.40254684 185138103.19556
69	242428 10635 235 190963 1.11 35.31 343 32.053895760254 36.900157743686 11545.106998212 389003.6363372
67	253063 11808 235 190963 1.11 35.31 343 -0.18834401705517 0.01494840890377 -1.7519638774664 0.23638403407445
66	264871 10654 235 190963 1.11 35.31 343 6.8690363238243 7.040654931489 2401.8831379142 16819.496898018
68	275525 5886 235 190963 1.11 35.31 343 3 3 1029 3087
80	281411 13612 1176 190791 1.28787328422 35.287883402983 341 0.099998756471 0.1000118098 34.100008925987 3.4100017900977
79	295023 13623 1046 190661 1.262217210836 35.262214330455 341 0.099998756589 0.100011809791 34.099995926843 3.4099991901316
78	308646 9220 1176 190791 1.28787328422 35.287883402983 341 3 3 1023 3069
77	317866 9221 1046 190661 1.262217210836 35.262214330455 341 3 3 1023 3069
76	327087 483 5171 189215 2 35 34 0 0 0 0
75	327570 688 5171 189215 2 35 34 0.023297 0.02625 0.889547 0.023281812709
74	328258 483 5171 189215 2 35 34 3 3 102 306
95	328741 11016 236 190964 1.11 35.31 343 -1.5000260611885 1.5032357306564 39.881507982211 499.47020621376
94	339757 11051 236 190964 1.11 35.31 343 -1.4562064309665 1.4309924737262 36.850456692013 348.1728209693
93	350808 7258 236 190964 1.11 35.31 343 36.55 36.55 12536.65 458214.5575
92	358066 10646 236 190964 1.11 35.31 343 71.22663230896 1222.3361658803 221110.2261893 180231502.22576
91	368712 10664 236 190964 1.11 35.31 343 32.064224228711 36.993376264861 11545.71392247 389045.37038309
89	379376 11777 236 190964 1.11 35.31 343 -0.097793633185908 0.014322369913707 -0.96569590387997 0.07377408302883
88	391153 10635 236 190964 1.11 35.31 343 6.9445023873936 7.0268464294953 2402.1884960316 16823.679719315
90	401788 5886 236 190964 1.11 35.31 343 4 4 1372 5488
102	407674 13952 1108 190723 1.276579247528 35.276589366968 341 0.09999875656 0.100011809804 34.100008926664 3.410001790233
101	421626 13954 1052 190667 1.262217247528 35.262214366971 341 0.09999875656 0.100011809795 34.099995926667 3.4099991900964
100	435580 9558 1108 190723 1.276579247528 35.276589366968 341 4 4 1364 5456
99	445138 9219 1052 190667 1.262217247528 35.262214366971 341 4 4 1364 5456
98	454357 483 5172 189216 2 35 34 0 0 0 0
97	454840 688 5172 189216 2 35 34 0.023297 0.02625 0.889547 0.023281812709
96	455528 483 5172 189216 2 35 34 4 4 136 544
117	456011 11361 237 190965 1.11 35.31 343 -1.508542389171 1.5107019449867 40.955092244532 508.51225048205
116	467372 11396 237 190965 1.11 35.31 343 -1.4566506657722 1.4331525218729 37.429470854617 351.02147027817
115	478768 7601 237 190965 1.11 35.31 343 36.55 36.55 12536.65 458214.5575
114	486369 10989 237 190965 1.11 35.31 343 60.226634216309 1211.4197500312 217336.98753248 175409329.89154
113	497358 10986 237 190965 1.11 35.31 343 32.059272015275 37.05106342839 11546.570185376 389108.21536002
111	508344 11982 237 190965 1.11 35.31 343 -0.063035578838885 0.032962835879111 -1.2247674730381 0.16966785365756
110	520326 11002 237 190965 1.11 35.31 343 6.9175695924628 7.024532116421 2401.2557820784 16810.668201478
112	531328 6229 237 190965 1.11 35.31 343 5 5 1715 8575
124	537557 13970 1244 190853 1.297503357604 35.29751347591 341 0.099998760235 0.100011809732 34.10000892553 3.4100017900061
123	551527 13952 1058 190673 1.26221728422 35.262214403394 341 0.099998756542 0.100011809794 34.099995926398 3.4099991900426
122	565479 9558 1244 190853 1.297503357604 35.29751347591 341 5 5 1705 8525
121	575037 9566 1058 190673 1.26221728422 35.262214403394 341 5 5 1705 8525
120	584603 517 5173 189217 2 35 34 0 0 0 0
119	585120 722 5173 189217 2 35 34 0.023297 0.02625 0.889547 0.023281812709
118	585842 517 5173 189217 2 35 34 5 5 170 850
139	586359 11367 238 190966 1.11 35.31 343 -1.4954220953545 1.4958358036217 40.721029560404 498.44783560604
138	597726 11412 238 190966 1.11 35.31 343 -1.4604220915402 1.4357848710645 37.73826707755 352.8147626221
137	609138 7601 238 190966 1.11 35.31 343 36.55 36.55 12536.65 458214.5575
136	616739 10983 238 190966 1.11 35.31 343 49.226634216309 1200.4002410892 213561.89995355 170666128.18822
135	627722 10999 238 190966 1.11 35.31 343 32.058008592813 37.07878040217 11546.385393175 389097.26876333
133	638721 12227 238 190966 1.11 35.31 343 -0.033449926386616 0.011156246158336 -0.18950250760265 0.021049037906951
132	650948 10976 238 190966 1.11 35.31 343 6.9803726108537 7.0366064997741 2403.0838830889 16836.266151237
134	661924 6229 238 190966 1.11 35.31 343 6 6 2058 12348
146	668153 13983 970 191142 1.247594953992 35.347603876507 342 0.099998759828 0.100011809705 34.200007729739 3.4200015508492
145	682136 13955 1064 190679 1.262217320912 35.262214440155 341 0.099998756532 0.100011809795 34.099995926467 3.4099991900564
144	696091 9578 970 191142 1.247594953992 35.347603876507 342 6 6 2052 12312
143	705669 9562 1064 190679 1.262217320912 35.262214440155 341 6 6 2046 12276
142	715231 517 5174 189218 2 35 34 0 0 0 0
141	715748 722 5174 189218 2 35 34 0.023297 0.02625 0.889547 0.023281812709
140	716470 517 5174 189218 2 35 34 6 6 204 1224
161	716987 11362 239 190967 1.11 35.31 343 -1.4854568374091 1.4867112472519 40.470903531896 485.99371469463
160	728349 11417 239 190967 1.11 35.31 343 -1.4553421799924 1.4301913980127 37.802446321314 350.4323433475
159	739766 7601 239 190967 1.11 35.31 343 36.55 36.55 12536.65 458214.5575
158	747367 10988 239 190967 1.11 35.31 343 38.226633262634 1189.381273624 209787.29589189 166007026.55345
157	758355 10999 239 190967 1.11 35.31 343 32.06417379542 37.086529037711 11546.198512451 389082.55117869
155	769354 12271 239 190967 1.11 35.31 343 -0.013754939254746 0.0095544887765016 -0.19050194670996 0.013978364008756
154	781625 10993 239 190967 1.11 35.31 343 6.9953146411241 7.0211776467884 2402.6003240452 16829.424809416
156	792618 6229 239 190967 1.11 35.31 343 7 7 2401 16807
168	798847 13988 832 190998 1.212136843916 35.312132766242 342 0.099998756005 0.100011809927 34.19999472955 3.4199989506741
167	812835 13973 1070 190685 1.262217357604 35.262214476912 341 0.099998756531 0.100011809798 34.099995926532 3.4099991900694
166	826808 9580 832 190998 1.212136843916 35.312132766242 342 7 7 2394 16758
165	836388 9569 1070 190685 1.262217357604 35.262214476912 341 7 7 2387 16709
164	845957 517 5175 189219 2 35 34 0 0 0 0
163	846474 722 5175 189219 2 35 34 0.023297 0.02625 0.889547 0.023281812709
162	847196 517 5175 189219 2 35 34 7 7 238 1666
22	847713 10663 233 191176 1.11 35.36 344 0 7.1291548727066 2338.8284070738 16213.627859718
23	858376 11571 233 191176 1.11 35.36 344 -4.3007391421942 0.085492886586287 -73.561431210592 247.52318494713
24	869947 5904 233 191176 1.11 35.36 344 1 1 344 344
25	875851 10684 233 191176 1.11 35.36 344 32.03605099481 36.371776861196 11576.774681814 389988.13769731
26	886535 10685 233 191176 1.11 35.36 344 104.22663612366 1256.6458881918 233687.38862152 196774422.72743
27	897220 7280 233 191176 1.11 35.36 344 36.55 36.55 12573.2 459550.46
28	904500 11093 233 191176 1.11 35.36 344 -1.4872877092465 1.463211989411 30.498184369955 354.17335969125
29	915593 11071 233 191176 1.11 35.36 344 -1.5233934275451 1.524149205505 31.131510710732 509.81117237312
30	926664 483 5169 189213 2 35 34 1 1 34 34
31	927147 688 5169 189213 2 35 34 0.023296 0.02625 0.889546 0.023281766116
32	927835 483 5169 189213 2 35 34 0 0 0 0
33	928318 9227 1034 190649 1.262217137452 35.262214258488 341 1 1 341 341
34	937545 9227 1034 190649 1.262217137452 35.262214258488 341 1 1 341 341
35	946772 13628 1034 190649 1.262217137452 35.262214258488 341 0.099998756757 0.10001180978 34.09999592826 3.409999190415
36	960400 13628 1034 190649 1.262217137452 35.262214258488 341 0.099998756757 0.10001180978 34.09999592826 3.409999190415
