version 2
run SinusoidalJammingDetail-333-20170801-17:13:27-15218
attr CACCSpacing 7
attr attackAcc -30
attr attackPos 7
attr attackSpeed 150
attr attackStart 30
attr attacker 1
attr beaconInterval 0.1
attr configname SinusoidalJammingDetail
attr controller 1
attr datetime 20170801-17:13:27
attr experiment SinusoidalJammingDetail
attr fakeAcc "(1 == 4)"
attr fakePos "(1 == 2)"
attr fakeSpeed "(1 == 3)"
attr inifile omnetpp_333.ini
attr iterationvars "$leaderSpeed=100, $controller=1, $CACCSpacing=7, $sController=\"CACC\", $attacker=1, $attackStart=30, $attackSpeed=150, $attackPos=7, $attackAcc=-30, $0=7, $1=0, $nCars=8, $platoonSize=8, $nLanes=1, $beaconInterval=0.1, $priority=2, $packetSize=200, $ploegH=0.5, $leaderHeadway=1.2, $fakeSpeed=(1 == 3), $fakeAcc=(1 == 4), $fakePos=(1 == 2)"
attr iterationvarsf leaderSpeed=100,controller=1,CACCSpacing=7,sController=CACC,attacker=1,attackStart=30,attackSpeed=150,attackPos=7,attackAcc=-30,7,0,nCars=8,platoonSize=8,nLanes=1,beaconInterval=0.1,priority=2,packetSize=200,ploegH=0.5,leaderHeadway=1.2,fakeSpeed=(1_==_3),fakeAcc=(1_==_4),fakePos=(1_==_2)-
attr leaderHeadway 1.2
attr leaderSpeed 100
attr measurement "$leaderSpeed=100, $controller=1, $CACCSpacing=7, $sController=\"CACC\", $attacker=1, $attackStart=30, $attackSpeed=150, $attackPos=7, $attackAcc=-30, $0=7, $1=0, $nCars=8, $platoonSize=8, $nLanes=1, $beaconInterval=0.1, $priority=2, $packetSize=200, $ploegH=0.5, $leaderHeadway=1.2, $fakeSpeed=(1 == 3), $fakeAcc=(1 == 4), $fakePos=(1 == 2)"
attr nCars 8
attr nLanes 1
attr network scenario
attr packetSize 200
attr platoonSize 8
attr ploegH 0.5
attr priority 2
attr processid 15218
attr repetition 3
attr replication #3
attr resultdir results
attr runnumber 333
attr sController "\"CACC\""
attr seedset 3
param **.coreDebug false
param **.debug false
param **.headway 0.1s
param **.numberOfCars 8
param **.numberOfCarsPerPlatoon 8
param **.numberOfLanes 1
param **.numericController 1
param **.traffic.nCars 8
param **.traffic.nLanes 1
param **.traffic.platoonInsertDistance 7m
param **.traffic.platoonInsertHeadway 0s
param **.traffic.platoonInsertSpeed 100kmph
param **.traffic.platoonInsertTime "1 s"
param **.traffic.platoonLeaderHeadway 1.2s
param **.traffic.platoonSize 8
param **.traffic.platooningVType "\"vtypeauto\""
param **.traffic_type "\"PlatoonsTrafficManager\""
param *.**.nic.mac1609_4.bitrate 6Mbps
param *.**.nic.mac1609_4.txPower 100mW
param *.**.nic.mac1609_4.useServiceChannel false
param *.**.nic.phy80211p.analogueModels "xmldoc(\"config.xml\")"
param *.**.nic.phy80211p.decider "xmldoc(\"config.xml\")"
param *.**.nic.phy80211p.maxTXPower 100mW
param *.**.nic.phy80211p.sensitivity -94dBm
param *.**.nic.phy80211p.thermalNoise -95dBm
param *.**.nic.phy80211p.usePropagationDelay true
param *.**.nic.phy80211p.useThermalNoise true
param *.annotations.draw false
param *.connectionManager.alpha 2.0
param *.connectionManager.carrierFrequency "5.890e9 Hz"
param *.connectionManager.pMax 100mW
param *.connectionManager.sat -94dBm
param *.connectionManager.sendDirect true
param *.manager.autoShutdown true
param *.manager.commandLine "\"sumo --remote-port $port --seed $seed --configuration-file $configFile\""
param *.manager.configFile "\"./sumocfg/freeway.sumo.cfg\""
param *.manager.host "\"localhost\""
param *.manager.margin 25
param *.manager.moduleDisplayString "\"\""
param *.manager.moduleName "\"node\""
param *.manager.moduleType "\"Car\""
param *.manager.updateInterval 0.01s
param *.node[*].appl.attackStart 30s
param *.node[*].appl.attackerType 1
param *.node[*].appl.simulationDuration "60 s"
param *.node[*].appl_type "\"SimplePlatooningApp\""
param *.node[*].helper.nCars 8
param *.node[*].helper.nLanes 1
param *.node[*].helper.platoonSize 8
param *.node[*].helper_type "\"PositionHelper\""
param *.node[*].mobility.x 0
param *.node[*].mobility.y 0
param *.node[*].mobility.z 1.895
param *.node[*].prot.attackStart 30s
param *.node[*].prot.attackerType 1
param *.node[*].prot.attackingNode 3
param *.node[*].prot.beaconingInterval 0.1s
param *.node[*].prot.fakeAcc "(1 == 4)"
param *.node[*].prot.fakePos "(1 == 2)"
param *.node[*].prot.fakeSpeed "(1 == 3)"
param *.node[*].prot.maliciousAcc "-30 mpss"
param *.node[*].prot.maliciousSpeed 150kmph
param *.node[*].prot.packetSize 200
param *.node[*].prot.priority 2
param *.node[*].prot.shiftX "7 m"
param *.node[*].prot.useControllerAcceleration true
param *.node[*].protocol_type "\"SimplePlatooningBeaconing\""
param *.node[*].scenario.accHeadway 0.1s
param *.node[*].scenario.caccC1 0.5
param *.node[*].scenario.caccOmegaN "0.2 Hz"
param *.node[*].scenario.caccSpacing 7m
param *.node[*].scenario.caccXi 1
param *.node[*].scenario.controller "\"CACC\""
param *.node[*].scenario.engineTau "0.5 s"
param *.node[*].scenario.leaderHeadway 1.2s
param *.node[*].scenario.leaderOscillationFrequency "0.2 Hz"
param *.node[*].scenario.leaderSpeed 100kmph
param *.node[*].scenario.oscillationAmplitude "10 kmph"
param *.node[*].scenario.ploegH 0.5s
param *.node[*].scenario.ploegKd 0.7
param *.node[*].scenario.ploegKp 0.2
param *.node[*].scenario.startOscillating "5 s"
param *.node[*].scenario.useRealisticEngine false
param *.node[*].scenario_type "\"SinusoidalScenario\""
param *.node[*].unicast.packetLossRate 0
param *.obstacles.debug false
param *.playgroundSizeX 65000m
param *.playgroundSizeY 25000m
param *.playgroundSizeZ 50m
param *.world.use2D false
param *.world.useTorus false

vector 0  scenario.node[0].appl  distance  ETV
vector 1  scenario.node[0].appl  relativeSpeed  ETV
vector 2  scenario.node[0].appl  nodeId  ETV
vector 6  scenario.node[0].appl  acceleration  ETV
vector 7  scenario.node[0].appl  controllerAcceleration  ETV
vector 3  scenario.node[0].appl  speed  ETV
vector 4  scenario.node[0].appl  posx  ETV
vector 5  scenario.node[0].appl  posy  ETV
vector 22  scenario.node[1].appl  distance  ETV
vector 23  scenario.node[1].appl  relativeSpeed  ETV
vector 24  scenario.node[1].appl  nodeId  ETV
vector 28  scenario.node[1].appl  acceleration  ETV
vector 29  scenario.node[1].appl  controllerAcceleration  ETV
vector 25  scenario.node[1].appl  speed  ETV
vector 26  scenario.node[1].appl  posx  ETV
vector 27  scenario.node[1].appl  posy  ETV
vector 44  scenario.node[2].appl  distance  ETV
vector 45  scenario.node[2].appl  relativeSpeed  ETV
vector 46  scenario.node[2].appl  nodeId  ETV
vector 50  scenario.node[2].appl  acceleration  ETV
vector 51  scenario.node[2].appl  controllerAcceleration  ETV
vector 47  scenario.node[2].appl  speed  ETV
vector 48  scenario.node[2].appl  posx  ETV
vector 49  scenario.node[2].appl  posy  ETV
vector 66  scenario.node[3].appl  distance  ETV
vector 67  scenario.node[3].appl  relativeSpeed  ETV
vector 68  scenario.node[3].appl  nodeId  ETV
vector 72  scenario.node[3].appl  acceleration  ETV
vector 73  scenario.node[3].appl  controllerAcceleration  ETV
vector 69  scenario.node[3].appl  speed  ETV
vector 70  scenario.node[3].appl  posx  ETV
vector 71  scenario.node[3].appl  posy  ETV
vector 88  scenario.node[4].appl  distance  ETV
vector 89  scenario.node[4].appl  relativeSpeed  ETV
vector 90  scenario.node[4].appl  nodeId  ETV
vector 94  scenario.node[4].appl  acceleration  ETV
vector 95  scenario.node[4].appl  controllerAcceleration  ETV
vector 91  scenario.node[4].appl  speed  ETV
vector 92  scenario.node[4].appl  posx  ETV
vector 93  scenario.node[4].appl  posy  ETV
vector 110  scenario.node[5].appl  distance  ETV
vector 111  scenario.node[5].appl  relativeSpeed  ETV
vector 112  scenario.node[5].appl  nodeId  ETV
vector 116  scenario.node[5].appl  acceleration  ETV
vector 117  scenario.node[5].appl  controllerAcceleration  ETV
vector 113  scenario.node[5].appl  speed  ETV
vector 114  scenario.node[5].appl  posx  ETV
vector 115  scenario.node[5].appl  posy  ETV
vector 132  scenario.node[6].appl  distance  ETV
vector 133  scenario.node[6].appl  relativeSpeed  ETV
vector 134  scenario.node[6].appl  nodeId  ETV
vector 138  scenario.node[6].appl  acceleration  ETV
vector 139  scenario.node[6].appl  controllerAcceleration  ETV
vector 135  scenario.node[6].appl  speed  ETV
vector 136  scenario.node[6].appl  posx  ETV
vector 137  scenario.node[6].appl  posy  ETV
vector 154  scenario.node[7].appl  distance  ETV
vector 155  scenario.node[7].appl  relativeSpeed  ETV
vector 156  scenario.node[7].appl  nodeId  ETV
vector 160  scenario.node[7].appl  acceleration  ETV
vector 161  scenario.node[7].appl  controllerAcceleration  ETV
vector 157  scenario.node[7].appl  speed  ETV
vector 158  scenario.node[7].appl  posx  ETV
vector 159  scenario.node[7].appl  posy  ETV
vector 35  scenario.node[1].prot  leaderDelay  ETV
vector 33  scenario.node[1].prot  leaderDelayId  ETV
vector 36  scenario.node[1].prot  frontDelay  ETV
vector 34  scenario.node[1].prot  frontDelayId  ETV
vector 57  scenario.node[2].prot  leaderDelay  ETV
vector 55  scenario.node[2].prot  leaderDelayId  ETV
vector 79  scenario.node[3].prot  leaderDelay  ETV
vector 77  scenario.node[3].prot  leaderDelayId  ETV
vector 101  scenario.node[4].prot  leaderDelay  ETV
vector 99  scenario.node[4].prot  leaderDelayId  ETV
vector 123  scenario.node[5].prot  leaderDelay  ETV
vector 121  scenario.node[5].prot  leaderDelayId  ETV
vector 145  scenario.node[6].prot  leaderDelay  ETV
vector 143  scenario.node[6].prot  leaderDelayId  ETV
vector 167  scenario.node[7].prot  leaderDelay  ETV
vector 165  scenario.node[7].prot  leaderDelayId  ETV
vector 168  scenario.node[7].prot  frontDelay  ETV
vector 166  scenario.node[7].prot  frontDelayId  ETV
vector 58  scenario.node[2].prot  frontDelay  ETV
vector 56  scenario.node[2].prot  frontDelayId  ETV
vector 124  scenario.node[5].prot  frontDelay  ETV
vector 122  scenario.node[5].prot  frontDelayId  ETV
vector 80  scenario.node[3].prot  frontDelay  ETV
vector 78  scenario.node[3].prot  frontDelayId  ETV
vector 146  scenario.node[6].prot  frontDelay  ETV
vector 144  scenario.node[6].prot  frontDelayId  ETV
vector 102  scenario.node[4].prot  frontDelay  ETV
vector 100  scenario.node[4].prot  frontDelayId  ETV
vector 8  scenario.node[0].prot  nodeId  ETV
vector 9  scenario.node[0].prot  busyTime  ETV
vector 10  scenario.node[0].prot  collisions  ETV
vector 30  scenario.node[1].prot  nodeId  ETV
vector 31  scenario.node[1].prot  busyTime  ETV
vector 32  scenario.node[1].prot  collisions  ETV
vector 52  scenario.node[2].prot  nodeId  ETV
vector 53  scenario.node[2].prot  busyTime  ETV
vector 54  scenario.node[2].prot  collisions  ETV
vector 74  scenario.node[3].prot  nodeId  ETV
vector 75  scenario.node[3].prot  busyTime  ETV
vector 76  scenario.node[3].prot  collisions  ETV
vector 96  scenario.node[4].prot  nodeId  ETV
vector 97  scenario.node[4].prot  busyTime  ETV
vector 98  scenario.node[4].prot  collisions  ETV
vector 118  scenario.node[5].prot  nodeId  ETV
vector 119  scenario.node[5].prot  busyTime  ETV
vector 120  scenario.node[5].prot  collisions  ETV
vector 140  scenario.node[6].prot  nodeId  ETV
vector 141  scenario.node[6].prot  busyTime  ETV
vector 142  scenario.node[6].prot  collisions  ETV
vector 162  scenario.node[7].prot  nodeId  ETV
vector 163  scenario.node[7].prot  busyTime  ETV
vector 164  scenario.node[7].prot  collisions  ETV
7	232	1.11	-8.430731206488e-07
7	788	1.21	-8.247038785214e-07
7	1344	1.31	-7.948429328053e-07
7	1900	1.41	-7.5609037608615e-07
7	2456	1.51	-7.1073863239235e-07
7	3012	1.61	-6.6078666094427e-07
7	3568	1.71	-6.079568990458e-07
7	4124	1.81	-5.5371389606762e-07
7	4680	1.91	-4.9928438983216e-07
7	5244	2.01	-4.4567811841034e-07
7	5800	2.11	-3.9370868165634e-07
7	6356	2.21	-3.4401411852514e-07
7	6912	2.31	-2.9707706872273e-07
7	7468	2.41	-2.5324398578164e-07
7	8024	2.51	-2.1274344064182e-07
7	8580	2.61	-1.7570315336002e-07
7	9136	2.71	-1.4216582755466e-07
7	9692	2.81	-1.1210364547765e-07
7	10248	2.91	-8.5431519636359e-08
7	10812	3.01	-6.2018816748832e-08
7	11368	3.11	-4.1699859565369e-08
7	11924	3.21	-2.4283316690799e-08
7	12480	3.31	-9.5601571103998e-09
7	13036	3.41	2.6894362292751e-09
7	13592	3.51	1.2690140493987e-08
7	14148	3.61	2.0666576006079e-08
7	14704	3.71	2.6839355626862e-08
7	15260	3.81	3.1421798496467e-08
7	15816	3.91	3.4617407607129e-08
7	16380	4.01	3.6617997523081e-08
7	16936	4.11	3.7602347902066e-08
7	17492	4.21	3.7735404134764e-08
7	18048	4.31	3.7167730226884e-08
7	18604	4.41	3.6035434192172e-08
7	19160	4.51	3.446024621212e-08
7	19716	4.61	3.2549973383311e-08
7	20272	4.71	3.0399071704323e-08
7	20828	4.81	2.8089345960325e-08
7	21384	4.91	2.5690727767369e-08
7	21949	5.01	2.326218861981e-08
7	22506	5.11	0.34814789186464
7	23063	5.21	0.68726937161622
7	23620	5.31	1.0064706311115
7	24177	5.41	1.2963311698934
7	24734	5.51	1.5
7	25291	5.61	1.5
7	25848	5.71	1.5
7	26405	5.81	1.5
7	26962	5.91	1.5
7	27527	6.01	1.5
7	28084	6.11	1.5
7	28641	6.21	1.5
7	29198	6.31	1.5
7	29755	6.41	1.5
7	30312	6.51	1.4919234148491
7	30869	6.61	1.226499329248
7	31426	6.71	0.92305384082895
7	31983	6.81	0.58908102066068
7	32540	6.91	0.2323562172788
7	33105	7.01	-0.13919559696193
7	33662	7.11	-0.51762846464532
7	34219	7.21	-0.89509993840359
7	34776	7.31	-1.2639902875456
7	35333	7.41	-1.5
7	35890	7.51	-1.5
7	36447	7.61	-1.5
7	37004	7.71	-1.5
7	37561	7.81	-1.5
7	38118	7.91	-1.5
7	38683	8.01	-1.5
7	39240	8.11	-1.5
7	39797	8.21	-1.5
7	40354	8.31	-1.5
7	40911	8.41	-1.5
7	41468	8.51	-1.5
7	42025	8.61	-1.5
7	42582	8.71	-1.5
7	43139	8.81	-1.5
7	43696	8.91	-1.5
7	44261	9.01	-1.5
7	44818	9.11	-1.5
7	45375	9.21	-1.5
7	45932	9.31	-1.5
7	46489	9.41	-1.5
7	47046	9.51	-1.1784535904302
7	47603	9.61	-0.73985166419522
7	48160	9.71	-0.29046662059022
7	48717	9.81	0.15868205669937
7	49274	9.91	0.59737147691163
7	49839	10.01	1.0162504341895
7	50396	10.11	1.4069035498921
7	50953	10.21	1.5
7	51510	10.31	1.5
7	52067	10.41	1.5
7	52624	10.51	1.5
7	53181	10.61	1.5
7	53738	10.71	1.5
7	54295	10.81	1.5
7	54852	10.91	1.5
7	55417	11.01	1.5
7	55974	11.11	1.5
7	56531	11.21	1.5
7	57088	11.31	1.5
7	57645	11.41	1.5
7	58202	11.51	1.5
7	58759	11.61	1.5
7	59316	11.71	1.5
7	59873	11.81	1.5
7	60430	11.91	1.142056952341
7	60995	12.01	0.73271074174567
7	61552	12.11	0.30763491703603
7	62109	12.21	-0.1229018340005
7	62666	12.31	-0.54917422864573
7	63223	12.41	-0.96209331715876
7	63780	12.51	-1.353290027524
7	64337	12.61	-1.5
7	64894	12.71	-1.5
7	65451	12.81	-1.5
7	66008	12.91	-1.5
7	66573	13.01	-1.5
7	67130	13.11	-1.5
7	67687	13.21	-1.5
7	68244	13.31	-1.5
7	68801	13.41	-1.5
7	69358	13.51	-1.5
7	69915	13.61	-1.5
7	70472	13.71	-1.5
7	71029	13.81	-1.5
7	71586	13.91	-1.5
7	72151	14.01	-1.5
7	72708	14.11	-1.5
7	73265	14.21	-1.5
7	73822	14.31	-1.5
7	74379	14.41	-1.3008305793136
7	74936	14.51	-0.8883573602082
7	75493	14.61	-0.45792464374534
7	76050	14.71	-0.020297800477731
7	76607	14.81	0.41435934757689
7	77164	14.91	0.83657487484984
7	77729	15.01	1.2376491838973
7	78286	15.11	1.5
7	78843	15.21	1.5
7	79400	15.31	1.5
7	79957	15.41	1.5
7	80514	15.51	1.5
7	81071	15.61	1.5
7	81628	15.71	1.5
7	82185	15.81	1.5
7	82742	15.91	1.5
7	83307	16.01	1.5
7	83864	16.11	1.5
7	84421	16.21	1.5
7	84978	16.31	1.5
7	85535	16.41	1.5
7	86092	16.51	1.5
7	86649	16.61	1.5
7	87206	16.71	1.5
7	87763	16.81	1.5
7	88320	16.91	1.2451238477401
7	88885	17.01	0.83347870135556
7	89442	17.11	0.40470958877082
7	89999	17.21	-0.03059806221717
7	90556	17.31	-0.46243980386486
7	91113	17.41	-0.8814833530446
7	91670	17.51	-1.2791500631707
7	92227	17.61	-1.5
7	92784	17.71	-1.5
7	93341	17.81	-1.5
7	93898	17.91	-1.5
7	94463	18.01	-1.5
7	95020	18.11	-1.5
7	95577	18.21	-1.5
7	96134	18.31	-1.5
7	96691	18.41	-1.5
7	97248	18.51	-1.5
7	97805	18.61	-1.5
7	98362	18.71	-1.5
7	98919	18.81	-1.5
7	99476	18.91	-1.5
7	100041	19.01	-1.5
7	100598	19.11	-1.5
7	101155	19.21	-1.5
7	101712	19.31	-1.5
7	102269	19.41	-1.2657245815118
7	102826	19.51	-0.85377693481412
7	103383	19.61	-0.42439560037995
7	103940	19.71	0.011767371269134
7	104497	19.81	0.44464851836491
7	105054	19.91	0.86486384400621
7	105619	20.01	1.2637899041136
7	106176	20.11	1.5
7	106733	20.21	1.5
7	107290	20.31	1.5
7	107847	20.41	1.5
7	108404	20.51	1.5
7	108961	20.61	1.5
7	109518	20.71	1.5
7	110075	20.81	1.5
7	110632	20.91	1.5
7	111197	21.01	1.5
7	111754	21.11	1.5
7	112311	21.21	1.5
7	112868	21.31	1.5
7	113425	21.41	1.5
7	113982	21.51	1.5
7	114539	21.61	1.5
7	115096	21.71	1.5
7	115653	21.81	1.5
7	116210	21.91	1.258091551777
7	116775	22.01	0.8462549163489
7	117332	22.11	0.41709956367568
7	117889	22.21	-0.018747163542116
7	118446	22.31	-0.45124369149361
7	119003	22.41	-0.87102520538537
7	119560	22.51	-1.2694848794591
7	120117	22.61	-1.5
7	120674	22.71	-1.5
7	121231	22.81	-1.5
7	121788	22.91	-1.5
7	122353	23.01	-1.5
7	122910	23.11	-1.5
7	123467	23.21	-1.5
7	124024	23.31	-1.5
7	124581	23.41	-1.5
7	125138	23.51	-1.5
7	125695	23.61	-1.5
7	126252	23.71	-1.5
7	126809	23.81	-1.5
7	127366	23.91	-1.5
7	127931	24.01	-1.5
7	128488	24.11	-1.5
7	129045	24.21	-1.5
7	129602	24.31	-1.5
7	130159	24.41	-1.2609239651112
7	130716	24.51	-0.8490461568448
7	131273	24.61	-0.41980696481052
7	131830	24.71	0.016157099446737
7	132387	24.81	0.44879633966076
7	132944	24.91	0.86873882266934
7	133509	25.01	1.26737155572
7	134066	25.11	1.5
7	134623	25.21	1.5
7	135180	25.31	1.5
7	135737	25.41	1.5
7	136294	25.51	1.5
7	136851	25.61	1.5
7	137408	25.71	1.5
7	137965	25.81	1.5
7	138522	25.91	1.5
7	139087	26.01	1.5
7	139644	26.11	1.5
7	140201	26.21	1.5
7	140758	26.31	1.5
7	141315	26.41	1.5
7	141872	26.51	1.5
7	142429	26.61	1.5
7	142986	26.71	1.5
7	143543	26.81	1.5
7	144100	26.91	1.2598728518634
7	144665	27.01	0.84801032251441
7	145222	27.11	0.41880224309152
7	145779	27.21	-0.017118277441824
7	146336	27.31	-0.44970455708397
7	146893	27.41	-0.86958730431876
7	147450	27.51	-1.2681558149826
7	148007	27.61	-1.5
7	148564	27.71	-1.5
7	149121	27.81	-1.5
7	149678	27.91	-1.5
7	150243	28.01	-1.5
7	150800	28.11	-1.5
7	151357	28.21	-1.5
7	151914	28.31	-1.5
7	152471	28.41	-1.5
7	153028	28.51	-1.5
7	153585	28.61	-1.5
7	154142	28.71	-1.5
7	154699	28.81	-1.5
7	155256	28.91	-1.5
7	155821	29.01	-1.5
7	156378	29.11	-1.5
7	156935	29.21	-1.5
7	157492	29.31	-1.5
7	158049	29.41	-1.2602629232513
7	158606	29.51	-0.84839472385599
7	159163	29.61	-0.41917509845245
7	159720	29.71	0.016761581287305
7	160277	29.81	0.44936751475852
7	160834	29.91	0.86927243012183
7	161399	30.01	1.267864773911
7	161956	30.11	1.5
7	162513	30.21	1.5
7	163070	30.31	1.5
7	163627	30.41	1.5
7	164184	30.51	1.5
7	164741	30.61	1.5
7	165298	30.71	1.5
7	165855	30.81	1.5
7	166412	30.91	1.5
7	166977	31.01	1.5
7	167534	31.11	1.5
7	168091	31.21	1.5
7	168648	31.31	1.5
7	169205	31.41	1.5
7	169762	31.51	1.5
7	170319	31.61	1.5
7	170876	31.71	1.5
7	171433	31.81	1.5
7	171990	31.91	1.2601181665204
7	172555	32.01	0.8482520712972
7	173112	32.11	0.41903673064365
7	173669	32.21	-0.016893952363397
7	174226	32.31	-0.44949259223633
7	174783	32.41	-0.8693892809368
7	175340	32.51	-1.2679727801776
7	175897	32.61	-1.5
7	176454	32.71	-1.5
7	177011	32.81	-1.5
7	177568	32.91	-1.5
7	178133	33.01	-1.5
7	178690	33.11	-1.5
7	179247	33.21	-1.5
7	179804	33.31	-1.5
7	180361	33.41	-1.5
7	180918	33.51	-1.5
7	181475	33.61	-1.5
7	182032	33.71	-1.5
7	182589	33.81	-1.5
7	183146	33.91	-1.5
7	183711	34.01	-1.5
7	184268	34.11	-1.5
7	184825	34.21	-1.5
7	185382	34.31	-1.5
7	185939	34.41	-1.2601718862041
7	186496	34.51	-0.84830501011592
7	187053	34.61	-0.41908807937801
7	187610	34.71	0.016844829035612
7	188167	34.81	0.44944617558609
7	188724	34.91	0.86934591722741
7	189289	35.01	1.2679326987083
7	189846	35.11	1.5
7	190403	35.21	1.5
7	190960	35.31	1.5
7	191517	35.41	1.5
7	192074	35.51	1.5
7	192631	35.61	1.5
7	193188	35.71	1.5
7	193745	35.81	1.5
7	194302	35.91	1.5
7	194867	36.01	1.5
7	195424	36.11	1.5
7	195981	36.21	1.5
7	196538	36.31	1.5
7	197095	36.41	1.5
7	197652	36.51	1.5
7	198209	36.61	1.5
7	198766	36.71	1.5
7	199323	36.81	1.5
7	199880	36.91	1.2601519506571
7	200445	37.01	0.84828536435039
7	201002	37.11	0.41906902369788
7	201559	37.21	-0.016863058860221
7	202116	37.31	-0.44946340095391
7	202673	37.41	-0.86936200963904
7	203230	37.51	-1.2679475730701
7	203787	37.61	-1.5
7	204344	37.71	-1.5
7	204901	37.81	-1.5
7	205458	37.91	-1.5
7	206023	38.01	-1.5
7	206580	38.11	-1.5
7	207137	38.21	-1.5
7	207694	38.31	-1.5
7	208251	38.41	-1.5
7	208808	38.51	-1.5
7	209365	38.61	-1.5
7	209922	38.71	-1.5
7	210479	38.81	-1.5
7	211036	38.91	-1.5
7	211601	39.01	-1.5
7	212158	39.11	-1.5
7	212715	39.21	-1.5
7	213272	39.31	-1.5
7	213829	39.41	-1.2601593488036
7	214386	39.51	-0.84829265495814
7	214943	39.61	-0.41907609532306
7	215500	39.71	0.01685629371266
7	216057	39.81	0.44945700856354
7	216614	39.91	0.86935603769241
7	217179	40.01	1.2679420531458
7	217736	40.11	1.5
7	218293	40.21	1.5
7	218850	40.31	1.5
7	219407	40.41	1.5
7	219964	40.51	1.5
7	220521	40.61	1.5
7	221078	40.71	1.5
7	221635	40.81	1.5
7	222192	40.91	1.5
7	222757	41.01	1.5
7	223314	41.11	1.5
7	223871	41.21	1.5
7	224428	41.31	1.5
7	224985	41.41	1.5
7	225542	41.51	1.5
7	226099	41.61	1.5
7	226656	41.71	1.5
7	227213	41.81	1.5
7	227770	41.91	1.2601566033284
7	228335	42.01	0.84828994939093
7	228892	42.11	0.41907347102099
7	229449	42.21	-0.016858804279881
7	230006	42.31	-0.44945938079935
7	230563	42.41	-0.86935825390018
7	231120	42.51	-1.2679441016066
7	231677	42.61	-1.5
7	232234	42.71	-1.5
7	232791	42.81	-1.5
7	233348	42.91	-1.5
7	233913	43.01	-1.5
7	234470	43.11	-1.5
7	235027	43.21	-1.5
7	235584	43.31	-1.5
7	236141	43.41	-1.5
7	236698	43.51	-1.5
7	237255	43.61	-1.5
7	237812	43.71	-1.5
7	238369	43.81	-1.5
7	238926	43.91	-1.5
7	239491	44.01	-1.5
7	240048	44.11	-1.5
7	240605	44.21	-1.5
7	241162	44.31	-1.5
7	241719	44.41	-1.2601576221815
7	242276	44.51	-0.84829095343405
7	242833	44.61	-0.41907444490634
7	243390	44.71	0.016857872601886
7	243947	44.81	0.44945850045656
7	244504	44.91	0.86935743145978
7	245069	45.01	1.2679433414175
6	232	1.11	-1.2391545567425e-07
6	788	1.21	-2.514333630188e-07
6	1344	1.31	-3.5153284727585e-07
6	1900	1.41	-4.2734420446777e-07
6	2456	1.51	-4.8187125401e-07
6	3012	1.61	-5.1795971955926e-07
6	3568	1.71	-5.3827413637464e-07
6	4124	1.81	-5.4528506154838e-07
6	4680	1.91	-5.4125663950799e-07
6	5244	2.01	-5.2824375984528e-07
6	5800	2.11	-5.080941889446e-07
6	6356	2.21	-4.8245141215375e-07
6	6912	2.31	-4.5276244975412e-07
6	7468	2.41	-4.202860282021e-07
6	8024	2.51	-3.8610643571246e-07
6	8580	2.61	-3.5114133822844e-07
6	9136	2.71	-3.1616025353287e-07
6	9692	2.81	-2.8179307776099e-07
6	10248	2.91	-2.4854536206931e-07
6	10812	3.01	-2.1681287876163e-07
6	11368	3.11	-1.8689298997288e-07
6	11924	3.21	-1.5899530581009e-07
6	12480	3.31	-1.3325838210676e-07
6	13036	3.41	-1.0975469422192e-07
6	13592	3.51	-8.8505203166278e-08
6	14148	3.61	-6.948575048682e-08
6	14704	3.71	-5.263665059374e-08
6	15260	3.81	-3.7870506730542e-08
6	15816	3.91	-2.5077895315917e-08
6	16380	4.01	-1.4133405557004e-08
6	16936	4.11	-4.9016790626411e-09
6	17492	4.21	2.7593927143243e-09
6	18048	4.31	8.9940499492513e-09
6	18604	4.41	1.3947598631603e-08
6	19160	4.51	1.7761081494427e-08
6	19716	4.61	2.0570567471623e-08
6	20272	4.71	2.2507151697937e-08
6	20828	4.81	2.3691626438449e-08
6	21384	4.91	2.4239099616352e-08
6	21949	5.01	2.4253310471067e-08
6	22506	5.11	0.0068264526728257
6	23063	5.21	0.074594836732089
6	23620	5.31	0.19005134681258
6	24177	5.41	0.34050272642077
6	24734	5.51	0.51301638947834
6	25291	5.61	0.6902545856434
6	25848	5.71	0.83572672600098
6	26405	5.81	0.95506454902292
6	26962	5.91	1.0529631292492
6	27527	6.01	1.133274063098
6	28084	6.11	1.1991570011418
6	28641	6.21	1.2532039573571
6	29198	6.31	1.2975412860019
6	29755	6.41	1.333913338177
6	30312	6.51	1.3635927249268
6	30869	6.61	1.3702053615898
6	31426	6.71	1.3272611926745
6	31983	6.81	1.2373810921854
6	32540	6.91	1.1040433755532
6	33105	7.01	0.93147092012096
6	33662	7.11	0.72451590565734
6	34219	7.21	0.48854318346834
6	34776	7.31	0.2293132962599
6	35333	7.41	-0.044839398398011
6	35890	7.51	-0.30626147443016
6	36447	7.61	-0.52071863005345
6	37004	7.71	-0.69664819306503
6	37561	7.81	-0.84097171097959
6	38118	7.91	-0.95936726353223
6	38683	8.01	-1.0564928537818
6	39240	8.11	-1.1361696666178
6	39797	8.21	-1.2015324045674
6	40354	8.31	-1.2551526155189
6	40911	8.41	-1.2991398644115
6	41468	8.51	-1.3352247292573
6	42025	8.61	-1.3648268867847
6	42582	8.71	-1.3891109663845
6	43139	8.81	-1.4090323697992
6	43696	8.91	-1.4253748592211
6	44261	9.01	-1.4387813926344
6	44818	9.11	-1.4497794195275
6	45375	9.21	-1.4588016321909
6	45932	9.31	-1.4662029890104
6	46489	9.41	-1.4722746794938
6	47046	9.51	-1.4696249146823
6	47603	9.61	-1.3967850639141
6	48160	9.71	-1.2587757641274
6	48717	9.81	-1.0660952217858
6	49274	9.91	-0.82923335017639
6	49839	10.01	-0.55852907832801
6	50396	10.11	-0.26404116068406
6	50953	10.21	0.03943269874469
6	51510	10.31	0.30182609756224
6	52067	10.41	0.51708007617997
6	52624	10.51	0.69366331158065
6	53181	10.61	0.83852306852847
6	53738	10.71	0.95735852386056
6	54295	10.81	1.0548449876072
6	54852	10.91	1.1348178424026
6	55417	11.01	1.2004234378704
6	55974	11.11	1.2542428765748
6	56531	11.21	1.2983935616166
6	57088	11.31	1.3346125010283
6	57645	11.41	1.3643246463978
6	58202	11.51	1.3886989543376
6	58759	11.61	1.4086943764163
6	59316	11.71	1.4250975869238
6	59873	11.81	1.4385539327762
6	60430	11.91	1.4345627372837
6	60995	12.01	1.3623449188774
6	61552	12.11	1.2299875654499
6	62109	12.21	1.0461448397812
6	62666	12.31	0.81967864249357
6	63223	12.41	0.55952045905059
6	63780	12.51	0.27454262949682
6	64337	12.61	-0.02234164487227
6	64894	12.71	-0.28780548057448
6	65451	12.81	-0.50557828687161
6	66008	12.91	-0.68422783827593
6	66573	13.01	-0.83078269404453
6	67130	13.11	-0.95100872081275
6	67687	13.21	-1.0496359374716
6	68244	13.31	-1.1305446069798
6	68801	13.41	-1.1969178964556
6	69358	13.51	-1.2513671116345
6	69915	13.61	-1.2960344327361
6	70472	13.71	-1.3326771936619
6	71029	13.81	-1.3627370202897
6	71586	13.91	-1.3873965479586
6	72151	14.01	-1.4076259495578
6	72708	14.11	-1.4242211047666
6	73265	14.21	-1.4378349121291
6	73822	14.31	-1.4490029758537
6	74379	14.41	-1.4542593951845
6	74936	14.51	-1.4067454390027
6	75493	14.61	-1.2938574955285
6	76050	14.71	-1.1248409052222
6	76607	14.81	-0.90912582142266
6	77164	14.91	-0.65618298375618
6	77729	15.01	-0.37539052553193
6	78286	15.11	-0.078063005083351
6	78843	15.21	0.20543869668366
6	79400	15.31	0.43800883574043
6	79957	15.41	0.62879735391697
6	80514	15.51	0.78531039043881
6	81071	15.61	0.91370559385808
6	81628	15.71	1.0190343806951
6	82185	15.81	1.1054406719047
6	82742	15.91	1.1763239259967
6	83307	16.01	1.2344728829817
6	83864	16.11	1.2821752809831
6	84421	16.21	1.3213078620836
6	84978	16.31	1.3534102084598
6	85535	16.41	1.3797453137308
6	86092	16.51	1.4013492725667
6	86649	16.61	1.4190720434691
6	87206	16.71	1.4336108884482
6	87763	16.81	1.4455378052084
6	88320	16.91	1.4502949065335
6	88885	17.01	1.3935559567532
6	89442	17.11	1.2733368701447
6	89999	17.21	1.098674244054
6	90556	17.31	0.87879676591527
6	91113	17.41	0.62298329276125
6	91670	17.51	0.34043137853565
6	92227	17.61	0.043031849081743
6	92784	17.71	-0.23417644595263
6	93341	17.81	-0.46158379949546
6	93898	17.91	-0.64813703535336
6	94463	18.01	-0.80117566522588
6	95020	18.11	-0.92672064505699
6	95577	18.21	-1.0297112558188
6	96134	18.31	-1.1141994282603
6	96691	18.41	-1.1835091568827
6	97248	18.51	-1.2403672749226
6	97805	18.61	-1.2870107353905
6	98362	18.71	-1.3252746188858
6	98919	18.81	-1.3566643306586
6	99476	18.91	-1.382414827345
6	100041	19.01	-1.4035392035215
6	100598	19.11	-1.4208685496044
6	101155	19.21	-1.4350846492011
6	101712	19.31	-1.4467468023362
6	102269	19.41	-1.4517201941775
6	102826	19.51	-1.3984004323884
6	103383	19.61	-1.280899381009
6	103940	19.71	-1.1083308503771
6	104497	19.81	-0.88999806036796
6	105054	19.91	-0.63525086466818
6	105619	20.01	-0.35335363991322
6	106176	20.11	-0.055983891306965
6	106733	20.21	0.22355126013309
6	107290	20.31	0.45286744637245
6	107847	20.41	0.64098658988812
6	108404	20.51	0.79530980944469
6	108961	20.61	0.92190860023926
6	109518	20.71	1.0257637030335
6	110075	20.81	1.1109610600446
6	110632	20.91	1.1808525670222
6	111197	21.01	1.2381879459468
6	111754	21.11	1.2852229265704
6	112311	21.21	1.32380799296
6	112868	21.31	1.3554611865732
6	113425	21.41	1.3814278301393
6	113982	21.51	1.402729522043
6	114539	21.61	1.4202043287796
6	115096	21.71	1.4345397567766
6	115653	21.81	1.4462998007627
6	116210	21.91	1.4512038299461
6	116775	22.01	1.3966149622046
6	117332	22.11	1.2781048258542
6	117889	22.21	1.104758616826
6	118446	22.31	0.88585193073989
6	119003	22.41	0.63070830476128
6	119560	22.51	0.3485673438103
6	120117	22.61	0.051185654371366
6	120674	22.71	-0.22748748564538
6	121231	22.81	-0.45609652227974
6	121788	22.91	-0.64363555681837
6	122353	23.01	-0.79748288496262
6	122910	23.11	-0.92369127904597
6	123467	23.21	-1.0272261205628
6	124024	23.31	-1.1121607517783
6	124581	23.41	-1.1818367320963
6	125138	23.51	-1.238995304092
6	125695	23.61	-1.2858852414524
6	126252	23.71	-1.3243513218473
6	126809	23.81	-1.355906905502
6	127366	23.91	-1.3817934749046
6	127931	24.01	-1.403029478104
6	128488	24.11	-1.4204503972248
6	129045	24.21	-1.434741618608
6	129602	24.31	-1.4464653977726
6	130159	24.41	-1.4513952146881
6	130716	24.51	-1.3972773206763
6	131273	24.61	-1.2791416668563
6	131830	24.71	-1.1060840673021
6	132387	24.81	-0.88739036841652
6	132944	24.91	-0.63239387292597
6	133509	25.01	-0.35034337810913
6	134066	25.11	-0.052966136909305
6	134623	25.21	0.2260268698226
6	135180	25.31	0.45489830857264
6	135737	25.41	0.64265260424108
6	136294	25.51	0.79667652148672
6	136851	25.61	0.92302978013947
6	137408	25.71	1.026683461059
6	137965	25.81	1.1117155819772
6	138522	25.91	1.1814715378073
6	139087	26.01	1.2386957175785
6	139644	26.11	1.2856394761656
6	140201	26.21	1.3241497087126
6	140758	26.31	1.3557415125099
6	141315	26.41	1.381657795045
6	141872	26.51	1.4029181733619
6	142429	26.61	1.4203590885685
6	142986	26.71	1.4346667137069
6	143543	26.81	1.4464039496644
6	144100	26.91	1.4513241957726
6	144665	27.01	1.3970315218256
6	145222	27.11	1.2787568961965
6	145779	27.21	1.1055921925461
6	146336	27.31	0.88681945319387
6	146893	27.41	0.63176835684509
6	147450	27.51	0.34968428947479
6	148007	27.61	0.052305397195695
6	148564	27.71	-0.22656890652364
6	149121	27.81	-0.45534296745835
6	149678	27.91	-0.64301737940227
6	150243	28.01	-0.79697576417033
6	150800	28.11	-0.92327526336611
6	151357	28.21	-1.0268848428069
6	151914	28.31	-1.1118807851517
6	152471	28.41	-1.1816070619506
6	153028	28.51	-1.2388068945789
6	153585	28.61	-1.2857306800289
6	154142	28.71	-1.3242245276459
6	154699	28.81	-1.3558028900945
6	155256	28.91	-1.3817081460427
6	155821	29.01	-1.4029594787171
6	156378	29.11	-1.4203929733469
6	156935	29.21	-1.4346945110272
6	157492	29.31	-1.4464267531491
6	158049	29.41	-1.4513505510322
6	158606	29.51	-1.3971227384758
6	159163	29.61	-1.2788996857299
6	159720	29.71	-1.1057747287548
6	160277	29.81	-0.88703132157519
6	160834	29.91	-0.63200048778356
6	161399	30.01	-0.34992887929945
6	161956	30.11	-0.052550599747647
6	162513	30.21	0.2263677550264
6	163070	30.31	0.45517795317025
6	163627	30.41	0.64288201021157
6	164184	30.51	0.7968647142846
6	164741	30.61	0.92318416378134
6	165298	30.71	1.0268101094169
6	165855	30.81	1.1118194777417
6	166412	30.91	1.1815567685211
6	166977	31.01	1.2387656364492
6	167534	31.11	1.2856968339921
6	168091	31.21	1.3241967621074
6	168648	31.31	1.3557801126822
6	169205	31.41	1.3816894606308
6	169762	31.51	1.4029441501705
6	170319	31.61	1.4203803985996
6	170876	31.71	1.4346841953547
6	171433	31.81	1.4464182907037
6	171990	31.91	1.451340770512
6	172555	32.01	1.397088887688
6	173112	32.11	1.2788466960817
6	173669	32.21	1.105706988989
6	174226	32.31	0.88695269654693
6	174783	32.41	0.6319143432556
6	175340	32.51	0.34983811123936
6	175897	32.61	0.052459604302157
6	176454	32.71	-0.22644240298604
6	177011	32.81	-0.45523919049693
6	177568	32.91	-0.64293224614822
6	178133	33.01	-0.7969059252499
6	178690	33.11	-0.92321797112582
6	179247	33.21	-1.0268378432144
6	179804	33.31	-1.1118422291158
6	180361	33.41	-1.181575432572
6	180918	33.51	-1.2387809474717
6	181475	33.61	-1.2857093943634
6	182032	33.71	-1.3242070659867
6	182589	33.81	-1.3557885654517
6	183146	33.91	-1.3816963948457
6	183711	34.01	-1.4029498386424
6	184268	34.11	-1.4203850651278
6	184825	34.21	-1.434688023533
6	185382	34.31	-1.4464214311442
6	185939	34.41	-1.4513444000944
6	186496	34.51	-1.3971014498232
6	187053	34.61	-1.2788663607086
6	187610	34.71	-1.1057321274318
6	188167	34.81	-0.88698187454561
6	188724	34.91	-0.63194631176522
6	189289	35.01	-0.34987179555621
6	189846	35.11	-0.052493373001994
6	190403	35.21	0.22641470089013
6	190960	35.31	0.45521646512974
6	191517	35.41	0.64291360343276
6	192074	35.51	0.79689063173021
6	192631	35.61	0.9232054251143
6	193188	35.71	1.0268275511155
6	193745	35.81	1.1118337860104
6	194302	35.91	1.1815685062846
6	194867	36.01	1.2387752655037
6	195424	36.11	1.2857047331707
6	195981	36.21	1.324203242185
6	196538	36.31	1.3557854286034
6	197095	36.41	1.3816938215378
6	197652	36.51	1.4029477276342
6	198209	36.61	1.4203833333653
6	198766	36.71	1.4346866028841
6	199323	36.81	1.4464202657173
6	199880	36.91	1.4513430531448
6	200445	37.01	1.3970967879747
6	201002	37.11	1.2788590631025
6	201559	37.21	1.1057227984747
6	202116	37.31	0.8869710464964
6	202673	37.41	0.63193444814829
6	203230	37.51	0.34985929519813
6	203787	37.61	0.052480841329228
6	204344	37.71	-0.22642498122742
6	204901	37.81	-0.45522489858705
6	205458	37.91	-0.64292052180406
6	206023	38.01	-0.79689630720416
6	206580	38.11	-0.92321008097898
6	207137	38.21	-1.0268313705456
6	207694	38.31	-1.1118369192733
6	208251	38.41	-1.1815710766513
6	208808	38.51	-1.2387773740993
6	209365	38.61	-1.2857064629529
6	209922	38.71	-1.3242046612092
6	210479	38.81	-1.3557865926966
6	211036	38.91	-1.3816947764997
6	211601	39.01	-1.4029485110349
6	212158	39.11	-1.420383976027
6	212715	39.21	-1.4346871300905
6	213272	39.31	-1.4464206982101
6	213829	39.41	-1.4513435530016
6	214386	39.51	-1.3970985180016
6	214943	39.61	-1.2788617712673
6	215500	39.71	-1.1057262604808
6	216057	39.81	-0.88697506482056
6	216614	39.91	-0.63193885077553
6	217179	40.01	-0.34986393412169
6	217736	40.11	-0.052485491873711
6	218293	40.21	0.22642116616005
6	218850	40.31	0.45522176890245
6	219407	40.41	0.64291795437263
6	219964	40.51	0.79689420101552
6	220521	40.61	0.92320835317068
6	221078	40.71	1.0268299531418
6	221635	40.81	1.1118357565078
6	222192	40.91	1.1815701227786
6	222757	41.01	1.2387765915918
6	223314	41.11	1.2857058210248
6	223871	41.21	1.3242041346043
6	224428	41.31	1.3557861606976
6	224985	41.41	1.3816944221094
6	225542	41.51	1.4029482203117
6	226099	41.61	1.420383737533
6	226656	41.71	1.4346869344426
6	227213	41.81	1.4464205377106
6	227770	41.91	1.4513433675031
6	228335	42.01	1.3970978759829
6	228892	42.11	1.2788607662586
6	229449	42.21	1.1057249757194
6	230006	42.31	0.88697357360701
6	230563	42.41	0.6319372169461
6	231120	42.51	0.3498622126024
6	231677	42.61	0.052483766041789
6	232234	42.71	-0.22642258194381
6	232791	42.81	-0.45522293033819
6	233348	42.91	-0.64291890715467
6	233913	43.01	-0.79689498262923
6	234470	43.11	-0.92320899436622
6	235027	43.21	-1.0268304791456
6	235584	43.31	-1.111836188014
6	236141	43.41	-1.1815704767642
6	236698	43.51	-1.2387768819831
6	237255	43.61	-1.2857060592466
6	237812	43.71	-1.3242043300295
6	238369	43.81	-1.3557863210146
6	238926	43.91	-1.3816945536259
6	239491	44.01	-1.4029483282012
6	240048	44.11	-1.4203838260396
6	240605	44.21	-1.4346870070494
6	241162	44.31	-1.4464205972729
6	241719	44.41	-1.4513434363423
6	242276	44.51	-1.3970981142382
6	242833	44.61	-1.2788611392207
6	243390	44.71	-1.1057254524978
6	243947	44.81	-0.88697412700043
6	244504	44.91	-0.63193782326394
6	245069	45.01	-0.34986285146203
5	232	1.11	36.55
5	788	1.21	36.55
5	1344	1.31	36.55
5	1900	1.41	36.55
5	2456	1.51	36.55
5	3012	1.61	36.55
5	3568	1.71	36.55
5	4124	1.81	36.55
5	4680	1.91	36.55
5	5244	2.01	36.55
5	5800	2.11	36.55
5	6356	2.21	36.55
5	6912	2.31	36.55
5	7468	2.41	36.55
5	8024	2.51	36.55
5	8580	2.61	36.55
5	9136	2.71	36.55
5	9692	2.81	36.55
5	10248	2.91	36.55
5	10812	3.01	36.55
5	11368	3.11	36.55
5	11924	3.21	36.55
5	12480	3.31	36.55
5	13036	3.41	36.55
5	13592	3.51	36.55
5	14148	3.61	36.55
5	14704	3.71	36.55
5	15260	3.81	36.55
5	15816	3.91	36.55
5	16380	4.01	36.55
5	16936	4.11	36.55
5	17492	4.21	36.55
5	18048	4.31	36.55
5	18604	4.41	36.55
5	19160	4.51	36.55
5	19716	4.61	36.55
5	20272	4.71	36.55
5	20828	4.81	36.55
5	21384	4.91	36.55
5	21949	5.01	36.55
5	22506	5.11	36.55
5	23063	5.21	36.55
5	23620	5.31	36.55
5	24177	5.41	36.55
5	24734	5.51	36.55
5	25291	5.61	36.55
5	25848	5.71	36.55
5	26405	5.81	36.55
5	26962	5.91	36.55
5	27527	6.01	36.55
5	28084	6.11	36.55
5	28641	6.21	36.55
5	29198	6.31	36.55
5	29755	6.41	36.55
5	30312	6.51	36.55
5	30869	6.61	36.55
5	31426	6.71	36.55
5	31983	6.81	36.55
5	32540	6.91	36.55
5	33105	7.01	36.55
5	33662	7.11	36.55
5	34219	7.21	36.55
5	34776	7.31	36.55
5	35333	7.41	36.55
5	35890	7.51	36.55
5	36447	7.61	36.55
5	37004	7.71	36.55
5	37561	7.81	36.55
5	38118	7.91	36.55
5	38683	8.01	36.55
5	39240	8.11	36.55
5	39797	8.21	36.55
5	40354	8.31	36.55
5	40911	8.41	36.55
5	41468	8.51	36.55
5	42025	8.61	36.55
5	42582	8.71	36.55
5	43139	8.81	36.55
5	43696	8.91	36.55
5	44261	9.01	36.55
5	44818	9.11	36.55
5	45375	9.21	36.55
5	45932	9.31	36.55
5	46489	9.41	36.55
5	47046	9.51	36.55
5	47603	9.61	36.55
5	48160	9.71	36.55
5	48717	9.81	36.55
5	49274	9.91	36.55
5	49839	10.01	36.55
5	50396	10.11	36.55
5	50953	10.21	36.55
5	51510	10.31	36.55
5	52067	10.41	36.55
5	52624	10.51	36.55
5	53181	10.61	36.55
5	53738	10.71	36.55
5	54295	10.81	36.55
5	54852	10.91	36.55
5	55417	11.01	36.55
5	55974	11.11	36.55
5	56531	11.21	36.55
5	57088	11.31	36.55
5	57645	11.41	36.55
5	58202	11.51	36.55
5	58759	11.61	36.55
5	59316	11.71	36.55
5	59873	11.81	36.55
5	60430	11.91	36.55
5	60995	12.01	36.55
5	61552	12.11	36.55
5	62109	12.21	36.55
5	62666	12.31	36.55
5	63223	12.41	36.55
5	63780	12.51	36.55
5	64337	12.61	36.55
5	64894	12.71	36.55
5	65451	12.81	36.55
5	66008	12.91	36.55
5	66573	13.01	36.55
5	67130	13.11	36.55
5	67687	13.21	36.55
5	68244	13.31	36.55
5	68801	13.41	36.55
5	69358	13.51	36.55
5	69915	13.61	36.55
5	70472	13.71	36.55
5	71029	13.81	36.55
5	71586	13.91	36.55
5	72151	14.01	36.55
5	72708	14.11	36.55
5	73265	14.21	36.55
5	73822	14.31	36.55
5	74379	14.41	36.55
5	74936	14.51	36.55
5	75493	14.61	36.55
5	76050	14.71	36.55
5	76607	14.81	36.55
5	77164	14.91	36.55
5	77729	15.01	36.55
5	78286	15.11	36.55
5	78843	15.21	36.55
5	79400	15.31	36.55
5	79957	15.41	36.55
5	80514	15.51	36.55
5	81071	15.61	36.55
5	81628	15.71	36.55
5	82185	15.81	36.55
5	82742	15.91	36.55
5	83307	16.01	36.55
5	83864	16.11	36.55
5	84421	16.21	36.55
5	84978	16.31	36.55
5	85535	16.41	36.55
5	86092	16.51	36.55
5	86649	16.61	36.55
5	87206	16.71	36.55
5	87763	16.81	36.55
5	88320	16.91	36.55
5	88885	17.01	36.55
5	89442	17.11	36.55
5	89999	17.21	36.55
5	90556	17.31	36.55
5	91113	17.41	36.55
5	91670	17.51	36.55
5	92227	17.61	36.55
5	92784	17.71	36.55
5	93341	17.81	36.55
5	93898	17.91	36.55
5	94463	18.01	36.55
5	95020	18.11	36.55
5	95577	18.21	36.55
5	96134	18.31	36.55
5	96691	18.41	36.55
5	97248	18.51	36.55
5	97805	18.61	36.55
5	98362	18.71	36.55
5	98919	18.81	36.55
5	99476	18.91	36.55
5	100041	19.01	36.55
5	100598	19.11	36.55
5	101155	19.21	36.55
5	101712	19.31	36.55
5	102269	19.41	36.55
5	102826	19.51	36.55
5	103383	19.61	36.55
5	103940	19.71	36.55
5	104497	19.81	36.55
5	105054	19.91	36.55
5	105619	20.01	36.55
5	106176	20.11	36.55
5	106733	20.21	36.55
5	107290	20.31	36.55
5	107847	20.41	36.55
5	108404	20.51	36.55
5	108961	20.61	36.55
5	109518	20.71	36.55
5	110075	20.81	36.55
5	110632	20.91	36.55
5	111197	21.01	36.55
5	111754	21.11	36.55
5	112311	21.21	36.55
5	112868	21.31	36.55
5	113425	21.41	36.55
5	113982	21.51	36.55
5	114539	21.61	36.55
5	115096	21.71	36.55
5	115653	21.81	36.55
5	116210	21.91	36.55
5	116775	22.01	36.55
5	117332	22.11	36.55
5	117889	22.21	36.55
5	118446	22.31	36.55
5	119003	22.41	36.55
5	119560	22.51	36.55
5	120117	22.61	36.55
5	120674	22.71	36.55
5	121231	22.81	36.55
5	121788	22.91	36.55
5	122353	23.01	36.55
5	122910	23.11	36.55
5	123467	23.21	36.55
5	124024	23.31	36.55
5	124581	23.41	36.55
5	125138	23.51	36.55
5	125695	23.61	36.55
5	126252	23.71	36.55
5	126809	23.81	36.55
5	127366	23.91	36.55
5	127931	24.01	36.55
5	128488	24.11	36.55
5	129045	24.21	36.55
5	129602	24.31	36.55
5	130159	24.41	36.55
5	130716	24.51	36.55
5	131273	24.61	36.55
5	131830	24.71	36.55
5	132387	24.81	36.55
5	132944	24.91	36.55
5	133509	25.01	36.55
5	134066	25.11	36.55
5	134623	25.21	36.55
5	135180	25.31	36.55
5	135737	25.41	36.55
5	136294	25.51	36.55
5	136851	25.61	36.55
5	137408	25.71	36.55
5	137965	25.81	36.55
5	138522	25.91	36.55
5	139087	26.01	36.55
5	139644	26.11	36.55
5	140201	26.21	36.55
5	140758	26.31	36.55
5	141315	26.41	36.55
5	141872	26.51	36.55
5	142429	26.61	36.55
5	142986	26.71	36.55
5	143543	26.81	36.55
5	144100	26.91	36.55
5	144665	27.01	36.55
5	145222	27.11	36.55
5	145779	27.21	36.55
5	146336	27.31	36.55
5	146893	27.41	36.55
5	147450	27.51	36.55
5	148007	27.61	36.55
5	148564	27.71	36.55
5	149121	27.81	36.55
5	149678	27.91	36.55
5	150243	28.01	36.55
5	150800	28.11	36.55
5	151357	28.21	36.55
5	151914	28.31	36.55
5	152471	28.41	36.55
5	153028	28.51	36.55
5	153585	28.61	36.55
5	154142	28.71	36.55
5	154699	28.81	36.55
5	155256	28.91	36.55
5	155821	29.01	36.55
5	156378	29.11	36.55
5	156935	29.21	36.55
5	157492	29.31	36.55
5	158049	29.41	36.55
5	158606	29.51	36.55
5	159163	29.61	36.55
5	159720	29.71	36.55
5	160277	29.81	36.55
5	160834	29.91	36.55
5	161399	30.01	36.55
5	161956	30.11	36.55
5	162513	30.21	36.55
5	163070	30.31	36.55
5	163627	30.41	36.55
5	164184	30.51	36.55
5	164741	30.61	36.55
5	165298	30.71	36.55
5	165855	30.81	36.55
5	166412	30.91	36.55
5	166977	31.01	36.55
5	167534	31.11	36.55
5	168091	31.21	36.55
5	168648	31.31	36.55
5	169205	31.41	36.55
5	169762	31.51	36.55
5	170319	31.61	36.55
5	170876	31.71	36.55
5	171433	31.81	36.55
5	171990	31.91	36.55
5	172555	32.01	36.55
5	173112	32.11	36.55
5	173669	32.21	36.55
5	174226	32.31	36.55
5	174783	32.41	36.55
5	175340	32.51	36.55
5	175897	32.61	36.55
5	176454	32.71	36.55
5	177011	32.81	36.55
5	177568	32.91	36.55
5	178133	33.01	36.55
5	178690	33.11	36.55
5	179247	33.21	36.55
5	179804	33.31	36.55
5	180361	33.41	36.55
5	180918	33.51	36.55
5	181475	33.61	36.55
5	182032	33.71	36.55
5	182589	33.81	36.55
5	183146	33.91	36.55
5	183711	34.01	36.55
5	184268	34.11	36.55
5	184825	34.21	36.55
5	185382	34.31	36.55
5	185939	34.41	36.55
5	186496	34.51	36.55
5	187053	34.61	36.55
5	187610	34.71	36.55
5	188167	34.81	36.55
5	188724	34.91	36.55
5	189289	35.01	36.55
5	189846	35.11	36.55
5	190403	35.21	36.55
5	190960	35.31	36.55
5	191517	35.41	36.55
5	192074	35.51	36.55
5	192631	35.61	36.55
5	193188	35.71	36.55
5	193745	35.81	36.55
5	194302	35.91	36.55
5	194867	36.01	36.55
5	195424	36.11	36.55
5	195981	36.21	36.55
5	196538	36.31	36.55
5	197095	36.41	36.55
5	197652	36.51	36.55
5	198209	36.61	36.55
5	198766	36.71	36.55
5	199323	36.81	36.55
5	199880	36.91	36.55
5	200445	37.01	36.55
5	201002	37.11	36.55
5	201559	37.21	36.55
5	202116	37.31	36.55
5	202673	37.41	36.55
5	203230	37.51	36.55
5	203787	37.61	36.55
5	204344	37.71	36.55
5	204901	37.81	36.55
5	205458	37.91	36.55
5	206023	38.01	36.55
5	206580	38.11	36.55
5	207137	38.21	36.55
5	207694	38.31	36.55
5	208251	38.41	36.55
5	208808	38.51	36.55
5	209365	38.61	36.55
5	209922	38.71	36.55
5	210479	38.81	36.55
5	211036	38.91	36.55
5	211601	39.01	36.55
5	212158	39.11	36.55
5	212715	39.21	36.55
5	213272	39.31	36.55
5	213829	39.41	36.55
5	214386	39.51	36.55
5	214943	39.61	36.55
5	215500	39.71	36.55
5	216057	39.81	36.55
5	216614	39.91	36.55
5	217179	40.01	36.55
5	217736	40.11	36.55
5	218293	40.21	36.55
5	218850	40.31	36.55
5	219407	40.41	36.55
5	219964	40.51	36.55
5	220521	40.61	36.55
5	221078	40.71	36.55
5	221635	40.81	36.55
5	222192	40.91	36.55
5	222757	41.01	36.55
5	223314	41.11	36.55
5	223871	41.21	36.55
5	224428	41.31	36.55
5	224985	41.41	36.55
5	225542	41.51	36.55
5	226099	41.61	36.55
5	226656	41.71	36.55
5	227213	41.81	36.55
5	227770	41.91	36.55
5	228335	42.01	36.55
5	228892	42.11	36.55
5	229449	42.21	36.55
5	230006	42.31	36.55
5	230563	42.41	36.55
5	231120	42.51	36.55
5	231677	42.61	36.55
5	232234	42.71	36.55
5	232791	42.81	36.55
5	233348	42.91	36.55
5	233913	43.01	36.55
5	234470	43.11	36.55
5	235027	43.21	36.55
5	235584	43.31	36.55
5	236141	43.41	36.55
5	236698	43.51	36.55
5	237255	43.61	36.55
5	237812	43.71	36.55
5	238369	43.81	36.55
5	238926	43.91	36.55
5	239491	44.01	36.55
5	240048	44.11	36.55
5	240605	44.21	36.55
5	241162	44.31	36.55
5	241719	44.41	36.55
5	242276	44.51	36.55
5	242833	44.61	36.55
5	243390	44.71	36.55
5	243947	44.81	36.55
5	244504	44.91	36.55
5	245069	45.01	36.55
4	232	1.11	119.1237327573
4	788	1.21	121.90151061809
4	1344	1.31	124.67928847616
4	1900	1.41	127.45706633057
4	2456	1.51	130.23484418059
4	3012	1.61	133.01262202572
4	3568	1.71	135.79039986562
4	4124	1.81	138.56817770013
4	4680	1.91	141.3459555292
4	5244	2.01	144.12373335288
4	5800	2.11	146.90151117131
4	6356	2.21	149.67928898472
4	6912	2.31	152.45706679336
4	7468	2.41	155.23484459753
4	8024	2.51	158.01262239758
4	8580	2.61	160.79040019383
4	9136	2.71	163.56817798664
4	9692	2.81	166.34595577636
4	10248	2.91	169.12373356333
4	10812	3.01	171.90151134787
4	11368	3.11	174.67928913031
4	11924	3.21	177.45706691093
4	12480	3.31	180.23484469002
4	13036	3.41	183.01262246782
4	13592	3.51	185.79040024456
4	14148	3.61	188.56817802046
4	14704	3.71	191.3459557957
4	15260	3.81	194.12373357044
4	15816	3.91	196.90151134483
4	16380	4.01	199.67928911899
4	16936	4.11	202.45706689302
4	17492	4.21	205.23484466703
4	18048	4.31	208.01262244107
4	18604	4.41	210.79040021521
4	19160	4.51	213.5681779895
4	19716	4.61	216.34595576398
4	20272	4.71	219.12373353866
4	20828	4.81	221.90151131357
4	21384	4.91	224.67928908872
4	21949	5.01	227.45706686411
4	22506	5.11	230.23484600503
4	23063	5.21	233.01285164789
4	23620	5.31	235.79185738436
4	24177	5.41	238.57308784208
4	24734	5.51	241.35809300476
4	25291	5.61	244.14860773479
4	25848	5.71	246.94631751666
4	26405	5.81	249.75262439079
4	26962	5.91	252.56867865043
4	27527	6.01	255.39542393671
4	28084	6.11	258.23363436402
4	28641	6.21	261.08394497578
4	29198	6.31	263.94687672878
4	29755	6.41	266.82285698905
4	30312	6.51	269.7122363139
4	30869	6.61	272.61527245324
4	31426	6.71	275.53191897413
4	31983	6.81	278.46164936002
4	32540	6.91	281.40347483459
4	33105	7.01	284.35598068503
4	33662	7.11	287.31736979683
4	34219	7.21	290.28551224405
4	34776	7.31	293.25799976735
4	35333	7.41	296.23220442975
4	35890	7.51	299.20541330401
4	36447	7.61	302.17512858377
4	37004	7.71	305.13928312373
4	37561	7.81	308.09618114473
4	38118	7.91	311.04443151724
4	38683	8.01	313.98289303052
4	39240	8.11	316.91062949427
4	39797	8.21	319.82687290636
4	40354	8.31	322.73099323757
4	40911	8.41	325.62247364448
4	41468	8.51	328.50089013548
4	42025	8.61	331.36589488978
4	42582	8.71	334.21720257317
4	43139	8.81	337.05457911222
4	43696	8.91	339.8778324852
4	44261	9.01	342.68680516741
4	44818	9.11	345.48136793371
4	45375	9.21	348.2614147745
4	45932	9.31	351.02685872497
4	46489	9.41	353.77762844369
4	47046	9.51	356.51366766865
4	47603	9.61	359.23517170023
4	48160	9.71	361.94300185976
4	48717	9.81	364.63864990962
4	49274	9.91	367.32413296286
4	49839	10.01	370.001888859
4	50396	10.11	372.67467331487
4	50953	10.21	375.34545908973
4	51510	10.31	378.01717439749
4	52067	10.41	380.6923405473
4	52624	10.51	383.37303236502
4	53181	10.61	386.06095193053
4	53738	10.71	388.75749554213
4	54295	10.81	391.4638086508
4	54852	10.91	394.18083092528
4	55417	11.01	396.90933322122
4	55974	11.11	399.64994790875
4	56531	11.21	402.40319375164
4	57088	11.31	405.16949631684
4	57645	11.41	407.94920471751
4	58202	11.51	410.742605348
4	58759	11.61	413.54993315146
4	59316	11.71	416.37138086309
4	59873	11.81	419.20710659287
4	60430	11.91	422.05722524667
4	60995	12.01	424.92153179472
4	61552	12.11	427.79918092105
4	62109	12.21	430.68874352431
4	62666	12.31	433.58829371389
4	63223	12.41	436.49549760103
4	63780	12.51	439.40770252214
4	64337	12.61	442.32202626903
4	64894	12.71	445.23558009254
4	65451	12.81	448.14581821827
4	66008	12.91	451.05064154144
4	66573	13.01	453.94832806504
4	67130	13.11	456.83746515174
4	67687	13.21	459.71689394693
4	68244	13.31	462.58566378616
4	68801	13.41	465.44299479351
4	69358	13.51	468.28824719905
4	69915	13.61	471.12089616865
4	70472	13.71	473.94051115549
4	71029	13.81	476.74673896123
4	71586	13.91	479.53928984021
4	72151	14.01	482.31792610009
4	72708	14.11	485.08245275032
4	73265	14.21	487.83270983079
4	73822	14.31	490.56856611844
4	74379	14.41	493.28991474575
4	74936	14.51	495.99682225055
4	75493	14.61	498.6899039389
4	76050	14.71	501.37040354538
4	76607	14.81	504.04010688736
4	77164	14.91	506.70124744903
4	77729	15.01	509.35641183249
4	78286	15.11	512.00844595611
4	78843	15.21	514.66029269364
4	79400	15.31	517.31466119831
4	79957	15.41	519.97379320587
4	80514	15.51	522.63952772042
4	81071	15.61	525.31337336586
4	81628	15.71	527.99656773924
4	82185	15.81	530.69012610119
4	82742	15.91	533.39488131904
4	83307	16.01	536.11151663411
4	83864	16.11	538.84059254222
4	84421	16.21	541.58256884519
4	84978	16.31	544.33782274066
4	85535	16.41	547.10666366205
4	86092	16.51	549.88934545257
4	86649	16.61	552.68607635204
4	87206	16.71	555.49702718966
4	87763	16.81	558.32233810487
4	88320	16.91	561.16212304635
4	88885	17.01	564.0162855101
4	89442	17.11	566.88412712588
4	89999	17.21	569.76433423243
4	90556	17.31	572.65506753292
4	91113	17.41	575.55405451531
4	91670	17.51	578.45868210502
4	92227	17.61	581.36608883464
4	92784	17.71	584.2733490591
4	93341	17.81	587.17781051422
4	93898	17.91	590.07728122817
4	94463	18.01	592.96996302059
4	95020	18.11	595.85438075727
4	95577	18.21	598.72932431437
4	96134	18.31	601.59380096886
4	96691	18.41	604.44699634209
4	97248	18.51	607.28824235991
4	97805	18.61	610.11699096883
4	98362	18.71	612.93279257411
4	98919	18.81	615.73527835147
4	99476	18.91	618.52414573652
4	100041	19.01	621.29914652109
4	100598	19.11	624.06007708804
4	101155	19.21	626.80677040038
4	101712	19.31	629.5390894296
4	102269	19.41	632.25692268333
4	102826	19.51	634.96035532748
4	103383	19.61	637.65005489902
4	103940	19.71	640.32730913214
4	104497	19.81	642.99393748655
4	105054	19.91	645.6521979889
4	105619	20.01	648.30469387842
4	106176	20.11	650.95428083337
4	106733	20.21	653.60389084572
4	107290	20.31	656.25619721159
4	107847	20.41	658.91341030199
4	108404	20.51	661.57734339103
4	108961	20.61	664.24948399502
4	109518	20.71	666.93105239545
4	110075	20.81	669.62304964816
4	110632	20.91	672.32629696762
4	111197	21.01	675.0414680357
4	111754	21.11	677.76911550619
4	112311	21.21	680.5096927477
4	112868	21.31	683.26357168038
4	113425	21.41	686.0310574083
4	113982	21.51	688.81240022306
4	114539	21.61	691.60780545096
4	115096	21.71	694.41744153106
4	115653	21.81	697.24144664208
4	116210	21.91	700.07993319003
4	116775	22.01	702.9328118827
4	117332	22.11	705.79940376035
4	117889	22.21	708.67841146277
4	118446	22.31	711.5680081629
4	119003	22.41	714.46593045178
4	119560	22.51	717.36957143284
4	120117	22.61	720.2760732716
4	120674	22.71	723.18250632073
4	121231	22.81	726.08620507519
4	121788	22.91	728.98496598017
4	122353	23.01	731.87698135321
4	122910	23.11	734.76076826509
4	123467	23.21	737.63511019736
4	124024	23.31	740.49900918114
4	124581	23.41	743.3516465344
4	125138	23.51	746.1923506527
4	125695	23.61	749.02057058648
4	126252	23.71	751.83585436522
4	126809	23.81	754.63783121566
4	127366	23.91	757.42619697459
4	127931	24.01	760.20070212224
4	128488	24.11	762.9611419655
4	129045	24.21	765.70734858469
4	129602	24.31	768.43918422723
4	130159	24.41	771.15653682556
4	130716	24.51	773.85949414024
4	131273	24.61	776.54873089191
4	131830	24.71	779.22554086844
4	132387	24.81	781.89174816277
4	132944	24.91	784.5496141863
4	133509	25.01	787.20174447823
4	134066	25.11	789.8509960727
4	134623	25.21	792.50029948694
4	135180	25.31	795.15232311703
4	135737	25.41	797.80927304706
4	136294	25.51	800.47295903438
4	136851	25.61	803.14486571034
4	137408	25.71	805.82621098976
4	137965	25.81	808.51799398698
4	138522	25.91	811.22103432375
4	139087	26.01	813.93600437538
4	139644	26.11	816.66345572383
4	140201	26.21	819.4038408584
4	140758	26.31	822.15753097792
4	141315	26.41	824.92483059474
4	141872	26.51	827.70598951502
4	142429	26.61	830.50121266683
4	142986	26.71	833.31066816259
4	143543	26.81	836.13449391299
4	144100	26.91	838.97280211119
4	144665	27.01	841.82550442822
4	145222	27.11	844.69192457029
4	145779	27.21	847.57076742382
4	146336	27.31	850.46020788125
4	146893	27.41	853.35798378985
4	147450	27.51	856.2614891067
4	148007	27.61	859.16786650065
4	148564	27.71	862.0741857773
4	149121	27.81	864.97777961342
4	149678	27.91	867.87644286355
4	150243	28.01	870.76836654034
4	150800	28.11	873.65206664409
4	151357	28.21	876.52632577818
4	151914	28.31	879.39014525336
4	152471	28.41	882.2427057966
4	153028	28.51	885.08333531866
4	153585	28.61	887.91148247228
4	154142	28.71	890.72669496067
4	154699	28.81	893.52860174292
4	155256	28.91	896.31689843627
4	155821	29.01	899.09133534082
4	156378	29.11	901.85170761569
4	156935	29.21	904.59784722001
4	157492	29.31	907.32961630175
4	158049	29.41	910.04690271435
4	158606	29.51	912.74979457586
4	159163	29.61	915.43896759626
4	159720	29.71	918.11571639716
4	160277	29.81	920.78186570959
4	160834	29.91	923.43967741116
4	161399	30.01	926.09175735787
4	161956	30.11	928.74096277064
4	162513	30.21	931.39022396368
4	163070	30.31	934.04220865835
4	163627	30.41	936.69912234845
4	164184	30.51	939.36277430707
4	164741	30.61	942.03464876832
4	165298	30.71	944.71596332113
4	165855	30.81	947.40771681249
4	166412	30.91	950.11072864486
4	166977	31.01	952.82567101362
4	167534	31.11	955.55309535315
4	168091	31.21	958.29345403166
4	168648	31.31	961.04711814868
4	169205	31.41	963.81439213505
4	169762	31.51	966.59552573011
4	170319	31.61	969.3907238071
4	170876	31.71	972.20015443343
4	171433	31.81	975.02395548291
4	171990	31.91	977.86223911939
4	172555	32.01	980.71491714655
4	173112	32.11	983.58131363775
4	173669	32.21	986.46013378881
4	174226	32.31	989.34955272898
4	174783	32.41	992.24730847853
4	175340	32.51	995.15079511211
4	175897	32.61	998.05715536789
4	176454	32.71	1000.9634589761
4	177011	32.81	1003.8670383632
4	177568	32.91	1006.7656881646
4	178133	33.01	1009.6575992132
4	178690	33.11	1012.541287362
4	179247	33.21	1015.4155350933
4	179804	33.31	1018.2793436188
4	180361	33.41	1021.1318935839
4	180918	33.51	1023.9725128328
4	181475	33.61	1026.8006499633
4	182032	33.71	1029.6158526338
4	182589	33.81	1032.4177497664
4	183146	33.91	1035.2060369482
4	183711	34.01	1037.9804644545
4	184268	34.11	1040.740827424
4	184825	34.21	1043.4869577992
4	185382	34.31	1046.2187177144
4	185939	34.41	1048.9359950121
4	186496	34.51	1051.6388778595
4	187053	34.61	1054.328042103
4	187610	34.71	1057.0047824789
4	188167	34.81	1059.6709238063
4	188724	34.91	1062.3287280267
4	189289	35.01	1064.98080104
4	189846	35.11	1067.6300000928
4	190403	35.21	1070.2792554712
4	190960	35.31	1072.9312348038
4	191517	35.41	1075.588143503
4	192074	35.51	1078.2517907753
4	192631	35.61	1080.9236608
4	193188	35.71	1083.6049711212
4	193745	35.81	1086.2967205491
4	194302	35.91	1088.9997284559
4	194867	36.01	1091.7146670123
4	195424	36.11	1094.4420876322
4	195981	36.21	1097.1824426672
4	196538	36.31	1099.9361032032
4	197095	36.41	1102.7033736599
4	197652	36.51	1105.4845037672
4	198209	36.61	1108.2796983909
4	198766	36.71	1111.0891255923
4	199323	36.81	1113.91292324
4	199880	36.91	1116.7512034939
4	200445	37.01	1119.603878176
4	201002	37.11	1122.47027141
4	201559	37.21	1125.3490884346
4	202116	37.31	1128.2385044114
4	202673	37.41	1131.1362573847
4	203230	37.51	1134.0397414453
4	203787	37.61	1136.9460993408
4	204344	37.71	1139.8524007912
4	204901	37.81	1142.7559781884
4	205458	37.91	1145.6546261377
4	206023	38.01	1148.5465354472
4	206580	38.11	1151.4302219495
4	207137	38.21	1154.3044681105
4	207694	38.31	1157.168275128
4	208251	38.41	1160.0208236364
4	208808	38.51	1162.8614414705
4	209365	38.61	1165.6895772206
4	209922	38.71	1168.504778539
4	210479	38.81	1171.3066743427
4	211036	38.91	1174.0949602146
4	211601	39.01	1176.8693864266
4	212158	39.11	1179.6297481146
4	212715	39.21	1182.3758772188
4	213272	39.31	1185.1076358715
4	213829	39.41	1187.8249119139
4	214386	39.51	1190.52779352
4	214943	39.61	1193.2169565547
4	215500	39.71	1195.8936957704
4	216057	39.81	1198.559835998
4	216614	39.91	1201.2176391882
4	217179	40.01	1203.8697112467
4	217736	40.11	1206.5189094235
4	218293	40.21	1209.1681640012
4	218850	40.31	1211.8201425953
4	219407	40.41	1214.4770506072
4	219964	40.51	1217.1406972341
4	220521	40.61	1219.8125666478
4	221078	40.71	1222.4938763863
4	221635	40.81	1225.1856252546
4	222192	40.91	1227.8886326207
4	222757	41.01	1230.6035706521
4	223314	41.11	1233.3309907597
4	223871	41.21	1236.071345293
4	224428	41.31	1238.8250053358
4	224985	41.41	1241.5922753063
4	225542	41.51	1244.3734049334
4	226099	41.61	1247.1685990815
4	226656	41.71	1249.9780258112
4	227213	41.81	1252.8018229905
4	227770	41.91	1255.6401027785
4	228335	42.01	1258.4927769999
4	228892	42.11	1261.3591697854
4	229449	42.21	1264.2379863793
4	230006	42.31	1267.1274019481
4	230563	42.41	1270.025154539
4	231120	42.51	1272.9286382453
4	231677	42.61	1275.8349958158
4	232234	42.71	1278.741296969
4	232791	42.81	1281.6448740921
4	233348	42.91	1284.5435217863
4	233913	43.01	1287.4354308563
4	234470	43.11	1290.3191171319
4	235027	43.21	1293.1933630767
4	235584	43.31	1296.0571698865
4	236141	43.41	1298.9097181942
4	236698	43.51	1301.7503358335
4	237255	43.61	1304.5784713935
4	237812	43.71	1307.3936725257
4	238369	43.81	1310.1955681464
4	238926	43.91	1312.9838538379
4	239491	44.01	1315.7582798716
4	240048	44.11	1318.5186413831
4	240605	44.21	1321.2647703123
4	241162	44.31	1323.9965287912
4	241719	44.41	1326.7138046607
4	242276	44.51	1329.4166860958
4	242833	44.61	1332.1058489641
4	243390	44.71	1334.78258802
4	243947	44.81	1337.4487280961
4	244504	44.91	1340.1065311445
4	245069	45.01	1342.7586030714
3	232	1.11	27.777778619612
3	788	1.21	27.777778599967
3	1344	1.31	27.777778569105
3	1900	1.41	27.777778529595
3	2456	1.51	27.777778483698
3	3012	1.61	27.777778433385
3	3568	1.71	27.777778380352
3	4124	1.81	27.777778326039
3	4680	1.91	27.77777827165
3	5244	2.01	27.777778218173
3	5800	2.11	27.777778166406
3	6356	2.21	27.777778116967
3	6912	2.31	27.777778070327
3	7468	2.41	27.777778026819
3	8024	2.51	27.77777798666
3	8580	2.61	27.77777794997
3	9136	2.71	27.777777916782
3	9692	2.81	27.777777887063
3	10248	2.91	27.777777860724
3	10812	3.01	27.777777837628
3	11368	3.11	27.777777817609
3	11924	3.21	27.777777800471
3	12480	3.31	27.777777786005
3	13036	3.41	27.777777773991
3	13592	3.51	27.777777764203
3	14148	3.61	27.777777756416
3	14704	3.71	27.777777750412
3	15260	3.81	27.777777745977
3	15816	3.91	27.77777774291
3	16380	4.01	27.777777741018
3	16936	4.11	27.777777740126
3	17492	4.21	27.77777774007
3	18048	4.31	27.7777777407
3	18604	4.41	27.777777741882
3	19160	4.51	27.777777743495
3	19716	4.61	27.777777745434
3	20272	4.71	27.777777747604
3	20828	4.81	27.777777749925
3	21384	4.91	27.777777752329
3	21949	5.01	27.777777754758
3	22506	5.11	27.777846021452
3	23063	5.21	27.782059596653
3	23620	5.31	27.795775862036
3	24177	5.41	27.823056285431
3	24734	5.51	27.866721940626
3	25291	5.61	27.928063782047
3	25848	5.71	28.005327711868
3	26405	5.81	28.095658800357
3	26962	5.91	28.196709510244
3	27527	6.01	28.30655404332
3	28084	6.11	28.423612574297
3	28641	6.21	28.54658909619
3	29198	6.31	28.674420431867
3	29755	6.41	28.80623440578
3	30312	6.51	28.941313946553
3	30869	6.61	29.078388981218
3	31426	6.71	29.213351897492
3	31983	6.81	29.341385131305
3	32540	6.91	29.457981732945
3	33105	7.01	29.559024895864
3	33662	7.11	29.640856051762
3	34219	7.21	29.700331349918
3	34776	7.31	29.734866440411
3	35333	7.41	29.742492528104
3	35890	7.51	29.72320356612
3	36447	7.61	29.680432143932
3	37004	7.71	29.618396925437
3	37561	7.81	29.540558684394
3	38118	7.91	29.449756460671
3	38683	8.01	29.348319255796
3	39240	8.11	29.238157662213
3	39797	8.21	29.120839031188
3	40354	8.31	28.997649136664
3	40911	8.41	28.86964276111
3	41468	8.51	28.737685193533
3	42025	8.61	28.602486272297
3	42582	8.71	28.464628312097
3	43139	8.81	28.324589013804
3	43696	8.91	28.182760258515
3	44261	9.01	28.039463525222
3	44818	9.11	27.894962538668
3	45375	9.21	27.749473644999
3	45932	9.31	27.603174323409
3	46489	9.41	27.456210168651
3	47046	9.51	27.308798307138
3	47603	9.61	27.165456941051
3	48160	9.71	27.033088438825
3	48717	9.81	26.917629526736
3	49274	9.91	26.823966096352
3	49839	10.01	26.755942052805
3	50396	10.11	26.716381687291
3	50953	10.21	26.707072901132
3	51510	10.31	26.725876201723
3	52067	10.41	26.768249212414
3	52624	10.51	26.829957594714
3	53181	10.61	26.90752771624
3	53738	10.71	26.998109988574
3	54295	10.81	27.099366756701
3	54852	10.91	27.209380329303
3	55417	11.01	27.326577531569
3	55974	11.11	27.449667812217
3	56531	11.21	27.577592469696
3	57088	11.31	27.709482999991
3	57645	11.41	27.844626927306
3	58202	11.51	27.982439773336
3	58759	11.61	28.122442062297
3	59316	11.71	28.264240457043
3	59873	11.81	28.407512284116
3	60430	11.91	28.5515861915
3	60995	12.01	28.691427297144
3	61552	12.11	28.820647386679
3	62109	12.21	28.933709262078
3	62666	12.31	29.025954034973
3	63223	12.41	29.093614170539
3	63780	12.51	29.133813231597
3	64337	12.61	29.144595455085
3	64894	12.71	29.127327372936
3	65451	12.81	29.086213776084
3	66008	12.91	29.025538551786
3	66573	13.01	28.948815979671
3	67130	13.11	28.858928993054
3	67687	13.21	28.758242601384
3	68244	13.31	28.648696936139
3	68801	13.41	28.531883580877
3	69358	13.51	28.409108188466
3	69915	13.61	28.281441849017
3	70472	13.71	28.14976322948
3	71029	13.81	28.014793142794
3	71586	13.91	27.877122906629
3	72151	14.01	27.737237607429
3	72708	14.11	27.595535185033
3	73265	14.21	27.452342088714
3	73822	14.31	27.307926120577
3	74379	14.41	27.162546024449
3	74936	14.51	27.019330871672
3	75493	14.61	26.884559196285
3	76050	14.71	26.764258967301
3	76607	14.81	26.663521929862
3	77164	14.91	26.586493202078
3	77729	15.01	26.536374688625
3	78286	15.11	26.515419708568
3	78843	15.21	26.523668857685
3	79400	15.31	26.557383788157
3	79957	15.41	26.611989529068
3	80514	15.51	26.683733010807
3	81071	15.61	26.769535409097
3	81628	15.71	26.866871015679
3	82185	15.81	26.973667870074
3	82742	15.91	27.088226243028
3	83307	16.01	27.209151764536
3	83864	16.11	27.335300565535
3	84421	16.21	27.465734274985
3	84978	16.31	27.599683101797
3	85535	16.41	27.736515549161
3	86092	16.51	27.875713569743
3	86649	16.61	28.016852184292
3	87206	16.71	28.159582761803
3	87763	16.81	28.303619303423
3	88320	16.91	28.448676617794
3	88885	17.01	28.590971447913
3	89442	17.11	28.724006207991
3	89999	17.21	28.841930784337
3	90556	17.31	28.939810791426
3	91113	17.41	29.013638834762
3	91670	17.51	29.060332154734
3	92227	17.61	29.077746642843
3	92784	17.71	29.066350790361
3	93341	17.81	29.030054467132
3	93898	17.91	28.973331085061
3	94463	18.01	28.899850399997
3	95020	18.11	28.812622889912
3	95577	18.21	28.714118195293
3	96134	18.31	28.606362281514
3	96691	18.41	28.491017145825
3	97248	18.51	28.369446204845
3	97805	18.61	28.242767935079
3	98362	18.71	28.111899876827
3	98919	18.81	27.977594732713
3	99476	18.91	27.840469981056
3	100041	19.01	27.701032169144
3	100598	19.11	27.559696842186
3	101155	19.21	27.416804891984
3	101712	19.31	27.272635968552
3	102269	19.41	27.127465418657
3	102826	19.51	26.984833896344
3	103383	19.61	26.851159734065
3	103940	19.71	26.732358896103
3	104497	19.81	26.633424036685
3	105054	19.91	26.558413554113
3	105619	20.01	26.510454337265
3	106176	20.11	26.4917309481
3	106733	20.21	26.50196337238
3	107290	20.31	26.53730527926
3	107847	20.41	26.593245707503
3	108404	20.51	26.666084097724
3	108961	20.61	26.752784702327
3	109518	20.71	26.85085715093
3	110075	20.81	26.958258472424
3	110632	20.91	27.073312718935
3	111197	21.01	27.194645029473
3	111754	21.11	27.321127539161
3	112311	21.21	27.451835005966
3	112868	21.31	27.58600840916
3	113425	21.41	27.723025087377
3	113982	21.51	27.862374241425
3	114539	21.61	28.003636838057
3	115096	21.71	28.146469124058
3	115653	21.81	28.290589102065
3	116210	21.91	28.435718002991
3	116775	22.01	28.578225822974
3	117332	22.11	28.711663912643
3	117889	22.21	28.83014072939
3	118446	22.31	28.928685230703
3	119003	22.41	29.003257937223
3	119560	22.51	29.050748330675
3	120117	22.61	29.068986857173
3	120674	22.71	29.058323427182
3	121231	22.81	29.022627945499
3	121788	22.91	28.966397462768
3	122353	23.01	28.89332112684
3	122910	23.11	28.806425323882
3	123467	23.21	28.70819274464
3	124024	23.31	28.600660060247
3	124581	23.41	28.485498050406
3	125138	23.51	28.364077336405
3	125695	23.61	28.237522305085
3	126252	23.71	28.106755345282
3	126809	23.81	27.97253313711
3	127366	23.91	27.835476421811
3	127931	24.01	27.696094423411
3	128488	24.11	27.554804882971
3	129045	24.21	27.411950493662
3	129602	24.31	27.267812383245
3	130159	24.41	27.122668052051
3	130716	24.51	26.980114349492
3	131273	24.61	26.846588675637
3	131830	24.71	26.727991635756
3	132387	24.81	26.629302292308
3	132944	24.91	26.554567145367
3	133509	25.01	26.506902788277
3	134066	25.11	26.488484344384
3	134623	25.21	26.498987841018
3	135180	25.31	26.534552121643
3	135737	25.41	26.590674973809
3	136294	25.51	26.663663015186
3	136851	25.61	26.75048638586
3	137408	25.71	26.8486595454
3	137965	25.81	26.956143484941
3	138522	25.91	27.071265507027
3	139087	26.01	27.192653417141
3	139644	26.11	27.319181537848
3	140201	26.21	27.449926421574
3	140758	26.31	27.584130519676
3	141315	26.41	27.721172378408
3	141872	26.51	27.86054218925
3	142429	26.61	28.001821731647
3	142986	26.71	28.144667919078
3	143543	26.81	28.288799301099
3	144100	26.91	28.433937906563
3	144665	27.01	28.576474582405
3	145222	27.11	28.709967753931
3	145779	27.21	28.828520179047
3	146336	27.31	28.927155771518
3	146893	27.41	29.001830636677
3	147450	27.51	29.049430435655
3	148007	27.61	29.067782111948
3	148564	27.71	29.057219263808
3	149121	27.81	29.021606294275
3	149678	27.91	28.965443500247
3	150243	28.01	28.892422692631
3	150800	28.11	28.805572442229
3	151357	28.21	28.707377231949
3	151914	28.31	28.599875203121
3	152471	28.41	28.48473834152
3	153028	28.51	28.363338257835
3	153585	28.61	28.23680015056
3	154142	28.71	28.106047074368
3	154699	28.81	27.971836255593
3	155256	28.91	27.834788883566
3	155821	29.01	27.695414549904
3	156378	29.11	27.554131297218
3	156935	29.21	27.411282066058
3	157492	29.31	27.267148187119
3	158049	29.41	27.122007456828
3	158606	29.51	26.979464462325
3	159163	29.61	26.84595922909
3	159720	29.71	26.727390247301
3	160277	29.81	26.628734707679
3	160834	29.91	26.554037471766
3	161399	30.01	26.506413715074
3	161956	30.11	26.488037261118
3	162513	30.21	26.498578083731
3	163070	30.31	26.534172984659
3	163627	30.41	26.590320956139
3	164184	30.51	26.663329604102
3	164741	30.61	26.750169879354
3	165298	30.71	26.848356906536
3	165855	30.81	26.955852222374
3	166412	30.91	27.070983576984
3	166977	31.01	27.19237914302
3	167534	31.11	27.318913544249
3	168091	31.21	27.449663580191
3	168648	31.31	27.583871904903
3	169205	31.41	27.720917230929
3	169762	31.51	27.860289886159
3	170319	31.61	28.001571761945
3	170876	31.71	28.144419863567
3	171433	31.81	28.288552815892
3	171990	31.91	28.433692757653
3	172555	32.01	28.576233407281
3	173112	32.11	28.709734164377
3	173669	32.21	28.828297001933
3	174226	32.31	28.926945139104
3	174783	32.41	29.001634073159
3	175340	32.51	29.049248939068
3	175897	32.61	29.067616197954
3	176454	32.71	29.057067201598
3	177011	32.81	29.021465595353
3	177568	32.91	28.965312123179
3	178133	33.01	28.89229896273
3	178690	33.11	28.805454985668
3	179247	33.21	28.707264921712
3	179804	33.31	28.599767114663
3	180361	33.41	28.484633716391
3	180918	33.51	28.363236473841
3	181475	33.61	28.236700697287
3	182032	33.71	28.105949533098
3	182589	33.81	27.971740282831
3	183146	33.91	27.834694197528
3	183711	34.01	27.695320919427
3	184268	34.11	27.554038532669
3	184825	34.21	27.411190011872
3	185382	34.31	27.267056715677
3	185939	34.41	27.12191648129
3	186496	34.51	26.979374961472
3	187053	34.61	26.845872543266
3	187610	34.71	26.727307425566
3	188167	34.81	26.628656541322
3	188724	34.91	26.553964526421
3	189289	35.01	26.506346361114
3	189846	35.11	26.487975689908
3	190403	35.21	26.498521652962
3	190960	35.31	26.534120770842
3	191517	35.41	26.590272201691
3	192074	35.51	26.663283687543
3	192631	35.61	26.750126290851
3	193188	35.71	26.848315227851
3	193745	35.81	26.955812110404
3	194302	35.91	27.070944750266
3	194867	36.01	27.192341370657
3	195424	36.11	27.318876636823
3	195981	36.21	27.449627382316
3	196538	36.31	27.583836289107
3	197095	36.41	27.72088209264
3	197652	36.51	27.860255139592
3	198209	36.61	28.001537336726
3	198766	36.71	28.144385701967
3	199323	36.81	28.28851887055
3	199880	36.91	28.433658996343
3	200445	37.01	28.576200193231
3	201002	37.11	28.709701994993
3	201559	37.21	28.828266266525
3	202116	37.31	28.926916131321
3	202673	37.41	29.00160700291
3	203230	37.51	29.0492239438
3	203787	37.61	29.067593348683
3	204344	37.71	29.057046259961
3	204901	37.81	29.02144621864
3	205458	37.91	28.965294030249
3	206023	38.01	28.892281922949
3	206580	38.11	28.805438809836
3	207137	38.21	28.70724945462
3	207694	38.31	28.599752228983
3	208251	38.41	28.484619307673
3	208808	38.51	28.363222456397
3	209365	38.61	28.236687000824
3	209922	38.71	28.105936099952
3	210479	38.81	27.971727065696
3	211036	38.91	27.834681157597
3	211601	39.01	27.695308024865
3	212158	39.11	27.554025757361
3	212715	39.21	27.411177334393
3	213272	39.31	27.267044118453
3	213829	39.41	27.121903952361
3	214386	39.51	26.979362635632
3	214943	39.61	26.845860605106
3	215500	39.71	26.727296019558
3	216057	39.81	26.628645776441
3	216614	39.91	26.553954480566
3	217179	40.01	26.506337085291
3	217736	40.11	26.487967210471
3	218293	40.21	26.498513881454
3	218850	40.31	26.534113580083
3	219407	40.41	26.590265487348
3	219964	40.51	26.663277364026
3	220521	40.61	26.750120287949
3	221078	40.71	26.848309487963
3	221635	40.81	26.95580658628
3	222192	40.91	27.070939403145
3	222757	41.01	27.192336168738
3	223314	41.11	27.318871554021
3	223871	41.21	27.449622397231
3	224428	41.31	27.583831384185
3	224985	41.41	27.720877253479
3	225542	41.51	27.860250354378
3	226099	41.61	28.001532595767
3	226656	41.71	28.144380997312
3	227213	41.81	28.288514195678
3	227770	41.91	28.433654346815
3	228335	42.01	28.57619561907
3	228892	42.11	28.709697564702
3	229449	42.21	28.828262033717
3	230006	42.31	28.926912136438
3	230563	42.41	29.001603274859
3	231120	42.51	29.04922050151
3	231677	42.61	29.067590201935
3	232234	42.71	29.057043375928
3	232791	42.81	29.021443550125
3	233348	42.91	28.965291538533
3	233913	43.01	28.89227957627
3	234470	43.11	28.805436582139
3	235027	43.21	28.707247324528
3	235584	43.31	28.599750178963
3	236141	43.41	28.484617323338
3	236698	43.51	28.363220525947
3	237255	43.61	28.236685114579
3	237812	43.71	28.105934249971
3	238369	43.81	27.971725245463
3	238926	43.91	27.834679361769
3	239491	44.01	27.695306249056
3	240048	44.11	27.554023997975
3	240605	44.21	27.41117558848
3	241162	44.31	27.267042383592
3	241719	44.41	27.121902226905
3	242276	44.51	26.979360938146
3	242833	44.61	26.845858961009
3	243390	44.71	26.727294448749
3	243947	44.81	26.628644293927
3	244504	44.91	26.553953097073
3	245069	45.01	26.506335807846
1	232	1.11	0
1	788	1.21	0
1	1344	1.31	0
1	1900	1.41	0
1	2456	1.51	0
1	3012	1.61	0
1	3568	1.71	0
1	4124	1.81	0
1	4680	1.91	0
1	5244	2.01	0
1	5800	2.11	0
1	6356	2.21	0
1	6912	2.31	0
1	7468	2.41	0
1	8024	2.51	0
1	8580	2.61	0
1	9136	2.71	0
1	9692	2.81	0
1	10248	2.91	0
1	10812	3.01	0
1	11368	3.11	0
1	11924	3.21	0
1	12480	3.31	0
1	13036	3.41	0
1	13592	3.51	0
1	14148	3.61	0
1	14704	3.71	0
1	15260	3.81	0
1	15816	3.91	0
1	16380	4.01	0
1	16936	4.11	0
1	17492	4.21	0
1	18048	4.31	0
1	18604	4.41	0
1	19160	4.51	0
1	19716	4.61	0
1	20272	4.71	0
1	20828	4.81	0
1	21384	4.91	0
1	21949	5.01	0
1	22506	5.11	0
1	23063	5.21	0
1	23620	5.31	0
1	24177	5.41	0
1	24734	5.51	0
1	25291	5.61	0
1	25848	5.71	0
1	26405	5.81	0
1	26962	5.91	0
1	27527	6.01	0
1	28084	6.11	0
1	28641	6.21	0
1	29198	6.31	0
1	29755	6.41	0
1	30312	6.51	0
1	30869	6.61	0
1	31426	6.71	0
1	31983	6.81	0
1	32540	6.91	0
1	33105	7.01	0
1	33662	7.11	0
1	34219	7.21	0
1	34776	7.31	0
1	35333	7.41	0
1	35890	7.51	0
1	36447	7.61	0
1	37004	7.71	0
1	37561	7.81	0
1	38118	7.91	0
1	38683	8.01	0
1	39240	8.11	0
1	39797	8.21	0
1	40354	8.31	0
1	40911	8.41	0
1	41468	8.51	0
1	42025	8.61	0
1	42582	8.71	0
1	43139	8.81	0
1	43696	8.91	0
1	44261	9.01	0
1	44818	9.11	0
1	45375	9.21	0
1	45932	9.31	0
1	46489	9.41	0
1	47046	9.51	0
1	47603	9.61	0
1	48160	9.71	0
1	48717	9.81	0
1	49274	9.91	0
1	49839	10.01	0
1	50396	10.11	0
1	50953	10.21	0
1	51510	10.31	0
1	52067	10.41	0
1	52624	10.51	0
1	53181	10.61	0
1	53738	10.71	0
1	54295	10.81	0
1	54852	10.91	0
1	55417	11.01	0
1	55974	11.11	0
1	56531	11.21	0
1	57088	11.31	0
1	57645	11.41	0
1	58202	11.51	0
1	58759	11.61	0
1	59316	11.71	0
1	59873	11.81	0
1	60430	11.91	0
1	60995	12.01	0
1	61552	12.11	0
1	62109	12.21	0
1	62666	12.31	0
1	63223	12.41	0
1	63780	12.51	0
1	64337	12.61	0
1	64894	12.71	0
1	65451	12.81	0
1	66008	12.91	0
1	66573	13.01	0
1	67130	13.11	0
1	67687	13.21	0
1	68244	13.31	0
1	68801	13.41	0
1	69358	13.51	0
1	69915	13.61	0
1	70472	13.71	0
1	71029	13.81	0
1	71586	13.91	0
1	72151	14.01	0
1	72708	14.11	0
1	73265	14.21	0
1	73822	14.31	0
1	74379	14.41	0
1	74936	14.51	0
1	75493	14.61	0
1	76050	14.71	0
1	76607	14.81	0
1	77164	14.91	0
1	77729	15.01	0
1	78286	15.11	0
1	78843	15.21	0
1	79400	15.31	0
1	79957	15.41	0
1	80514	15.51	0
1	81071	15.61	0
1	81628	15.71	0
1	82185	15.81	0
1	82742	15.91	0
1	83307	16.01	0
1	83864	16.11	0
1	84421	16.21	0
1	84978	16.31	0
1	85535	16.41	0
1	86092	16.51	0
1	86649	16.61	0
1	87206	16.71	0
1	87763	16.81	0
1	88320	16.91	0
1	88885	17.01	0
1	89442	17.11	0
1	89999	17.21	0
1	90556	17.31	0
1	91113	17.41	0
1	91670	17.51	0
1	92227	17.61	0
1	92784	17.71	0
1	93341	17.81	0
1	93898	17.91	0
1	94463	18.01	0
1	95020	18.11	0
1	95577	18.21	0
1	96134	18.31	0
1	96691	18.41	0
1	97248	18.51	0
1	97805	18.61	0
1	98362	18.71	0
1	98919	18.81	0
1	99476	18.91	0
1	100041	19.01	0
1	100598	19.11	0
1	101155	19.21	0
1	101712	19.31	0
1	102269	19.41	0
1	102826	19.51	0
1	103383	19.61	0
1	103940	19.71	0
1	104497	19.81	0
1	105054	19.91	0
1	105619	20.01	0
1	106176	20.11	0
1	106733	20.21	0
1	107290	20.31	0
1	107847	20.41	0
1	108404	20.51	0
1	108961	20.61	0
1	109518	20.71	0
1	110075	20.81	0
1	110632	20.91	0
1	111197	21.01	0
1	111754	21.11	0
1	112311	21.21	0
1	112868	21.31	0
1	113425	21.41	0
1	113982	21.51	0
1	114539	21.61	0
1	115096	21.71	0
1	115653	21.81	0
1	116210	21.91	0
1	116775	22.01	0
1	117332	22.11	0
1	117889	22.21	0
1	118446	22.31	0
1	119003	22.41	0
1	119560	22.51	0
1	120117	22.61	0
1	120674	22.71	0
1	121231	22.81	0
1	121788	22.91	0
1	122353	23.01	0
1	122910	23.11	0
1	123467	23.21	0
1	124024	23.31	0
1	124581	23.41	0
1	125138	23.51	0
1	125695	23.61	0
1	126252	23.71	0
1	126809	23.81	0
1	127366	23.91	0
1	127931	24.01	0
1	128488	24.11	0
1	129045	24.21	0
1	129602	24.31	0
1	130159	24.41	0
1	130716	24.51	0
1	131273	24.61	0
1	131830	24.71	0
1	132387	24.81	0
1	132944	24.91	0
1	133509	25.01	0
1	134066	25.11	0
1	134623	25.21	0
1	135180	25.31	0
1	135737	25.41	0
1	136294	25.51	0
1	136851	25.61	0
1	137408	25.71	0
1	137965	25.81	0
1	138522	25.91	0
1	139087	26.01	0
1	139644	26.11	0
1	140201	26.21	0
1	140758	26.31	0
1	141315	26.41	0
1	141872	26.51	0
1	142429	26.61	0
1	142986	26.71	0
1	143543	26.81	0
1	144100	26.91	0
1	144665	27.01	0
1	145222	27.11	0
1	145779	27.21	0
1	146336	27.31	0
1	146893	27.41	0
1	147450	27.51	0
1	148007	27.61	0
1	148564	27.71	0
1	149121	27.81	0
1	149678	27.91	0
1	150243	28.01	0
1	150800	28.11	0
1	151357	28.21	0
1	151914	28.31	0
1	152471	28.41	0
1	153028	28.51	0
1	153585	28.61	0
1	154142	28.71	0
1	154699	28.81	0
1	155256	28.91	0
1	155821	29.01	0
1	156378	29.11	0
1	156935	29.21	0
1	157492	29.31	0
1	158049	29.41	0
1	158606	29.51	0
1	159163	29.61	0
1	159720	29.71	0
1	160277	29.81	0
1	160834	29.91	0
1	161399	30.01	0
1	161956	30.11	0
1	162513	30.21	0
1	163070	30.31	0
1	163627	30.41	0
1	164184	30.51	0
1	164741	30.61	0
1	165298	30.71	0
1	165855	30.81	0
1	166412	30.91	0
1	166977	31.01	0
1	167534	31.11	0
1	168091	31.21	0
1	168648	31.31	0
1	169205	31.41	0
1	169762	31.51	0
1	170319	31.61	0
1	170876	31.71	0
1	171433	31.81	0
1	171990	31.91	0
1	172555	32.01	0
1	173112	32.11	0
1	173669	32.21	0
1	174226	32.31	0
1	174783	32.41	0
1	175340	32.51	0
1	175897	32.61	0
1	176454	32.71	0
1	177011	32.81	0
1	177568	32.91	0
1	178133	33.01	0
1	178690	33.11	0
1	179247	33.21	0
1	179804	33.31	0
1	180361	33.41	0
1	180918	33.51	0
1	181475	33.61	0
1	182032	33.71	0
1	182589	33.81	0
1	183146	33.91	0
1	183711	34.01	0
1	184268	34.11	0
1	184825	34.21	0
1	185382	34.31	0
1	185939	34.41	0
1	186496	34.51	0
1	187053	34.61	0
1	187610	34.71	0
1	188167	34.81	0
1	188724	34.91	0
1	189289	35.01	0
1	189846	35.11	0
1	190403	35.21	0
1	190960	35.31	0
1	191517	35.41	0
1	192074	35.51	0
1	192631	35.61	0
1	193188	35.71	0
1	193745	35.81	0
1	194302	35.91	0
1	194867	36.01	0
1	195424	36.11	0
1	195981	36.21	0
1	196538	36.31	0
1	197095	36.41	0
1	197652	36.51	0
1	198209	36.61	0
1	198766	36.71	0
1	199323	36.81	0
1	199880	36.91	0
1	200445	37.01	0
1	201002	37.11	0
1	201559	37.21	0
1	202116	37.31	0
1	202673	37.41	0
1	203230	37.51	0
1	203787	37.61	0
1	204344	37.71	0
1	204901	37.81	0
1	205458	37.91	0
1	206023	38.01	0
1	206580	38.11	0
1	207137	38.21	0
1	207694	38.31	0
1	208251	38.41	0
1	208808	38.51	0
1	209365	38.61	0
1	209922	38.71	0
1	210479	38.81	0
1	211036	38.91	0
1	211601	39.01	0
1	212158	39.11	0
1	212715	39.21	0
1	213272	39.31	0
1	213829	39.41	0
1	214386	39.51	0
1	214943	39.61	0
1	215500	39.71	0
1	216057	39.81	0
1	216614	39.91	0
1	217179	40.01	0
1	217736	40.11	0
1	218293	40.21	0
1	218850	40.31	0
1	219407	40.41	0
1	219964	40.51	0
1	220521	40.61	0
1	221078	40.71	0
1	221635	40.81	0
1	222192	40.91	0
1	222757	41.01	0
1	223314	41.11	0
1	223871	41.21	0
1	224428	41.31	0
1	224985	41.41	0
1	225542	41.51	0
1	226099	41.61	0
1	226656	41.71	0
1	227213	41.81	0
1	227770	41.91	0
1	228335	42.01	0
1	228892	42.11	0
1	229449	42.21	0
1	230006	42.31	0
1	230563	42.41	0
1	231120	42.51	0
1	231677	42.61	0
1	232234	42.71	0
1	232791	42.81	0
1	233348	42.91	0
1	233913	43.01	0
1	234470	43.11	0
1	235027	43.21	0
1	235584	43.31	0
1	236141	43.41	0
1	236698	43.51	0
1	237255	43.61	0
1	237812	43.71	0
1	238369	43.81	0
1	238926	43.91	0
1	239491	44.01	0
1	240048	44.11	0
1	240605	44.21	0
1	241162	44.31	0
1	241719	44.41	0
1	242276	44.51	0
1	242833	44.61	0
1	243390	44.71	0
1	243947	44.81	0
1	244504	44.91	0
1	245069	45.01	0
0	232	1.11	-1
0	788	1.21	-1
0	1344	1.31	-1
0	1900	1.41	-1
0	2456	1.51	-1
0	3012	1.61	-1
0	3568	1.71	-1
0	4124	1.81	-1
0	4680	1.91	-1
0	5244	2.01	-1
0	5800	2.11	-1
0	6356	2.21	-1
0	6912	2.31	-1
0	7468	2.41	-1
0	8024	2.51	-1
0	8580	2.61	-1
0	9136	2.71	-1
0	9692	2.81	-1
0	10248	2.91	-1
0	10812	3.01	-1
0	11368	3.11	-1
0	11924	3.21	-1
0	12480	3.31	-1
0	13036	3.41	-1
0	13592	3.51	-1
0	14148	3.61	-1
0	14704	3.71	-1
0	15260	3.81	-1
0	15816	3.91	-1
0	16380	4.01	-1
0	16936	4.11	-1
0	17492	4.21	-1
0	18048	4.31	-1
0	18604	4.41	-1
0	19160	4.51	-1
0	19716	4.61	-1
0	20272	4.71	-1
0	20828	4.81	-1
0	21384	4.91	-1
0	21949	5.01	-1
0	22506	5.11	-1
0	23063	5.21	-1
0	23620	5.31	-1
0	24177	5.41	-1
0	24734	5.51	-1
0	25291	5.61	-1
0	25848	5.71	-1
0	26405	5.81	-1
0	26962	5.91	-1
0	27527	6.01	-1
0	28084	6.11	-1
0	28641	6.21	-1
0	29198	6.31	-1
0	29755	6.41	-1
0	30312	6.51	-1
0	30869	6.61	-1
0	31426	6.71	-1
0	31983	6.81	-1
0	32540	6.91	-1
0	33105	7.01	-1
0	33662	7.11	-1
0	34219	7.21	-1
0	34776	7.31	-1
0	35333	7.41	-1
0	35890	7.51	-1
0	36447	7.61	-1
0	37004	7.71	-1
0	37561	7.81	-1
0	38118	7.91	-1
0	38683	8.01	-1
0	39240	8.11	-1
0	39797	8.21	-1
0	40354	8.31	-1
0	40911	8.41	-1
0	41468	8.51	-1
0	42025	8.61	-1
0	42582	8.71	-1
0	43139	8.81	-1
0	43696	8.91	-1
0	44261	9.01	-1
0	44818	9.11	-1
0	45375	9.21	-1
0	45932	9.31	-1
0	46489	9.41	-1
0	47046	9.51	-1
0	47603	9.61	-1
0	48160	9.71	-1
0	48717	9.81	-1
0	49274	9.91	-1
0	49839	10.01	-1
0	50396	10.11	-1
0	50953	10.21	-1
0	51510	10.31	-1
0	52067	10.41	-1
0	52624	10.51	-1
0	53181	10.61	-1
0	53738	10.71	-1
0	54295	10.81	-1
0	54852	10.91	-1
0	55417	11.01	-1
0	55974	11.11	-1
0	56531	11.21	-1
0	57088	11.31	-1
0	57645	11.41	-1
0	58202	11.51	-1
0	58759	11.61	-1
0	59316	11.71	-1
0	59873	11.81	-1
[...]
35	213320	39.369560335869	0.09999885037
35	213877	39.469559182899	0.09999884703
35	214434	39.569558026478	0.099998843579
35	214991	39.669556866502	0.099998840024
35	215548	39.769555702876	0.099998836374
35	216105	39.869554535519	0.099998832643
35	216662	39.969566364367	0.100011828848
35	217227	40.069565189372	0.099998825005
35	217784	40.169564010505	0.099998821133
35	218341	40.269562827756	0.099998817251
35	218898	40.369561641136	0.09999881338
35	219455	40.46956045067	0.099998809534
35	220012	40.56955925639	0.09999880572
35	220569	40.66955805834	0.09999880195
35	221126	40.769556856576	0.099998798236
35	221683	40.869555651156	0.09999879458
35	222240	40.969554442145	0.099998790989
35	222805	41.069566229612	0.100011787467
35	223362	41.169565013631	0.099998784019
35	223919	41.269563794278	0.099998780647
35	224476	41.369562571631	0.099998777353
35	225033	41.469561345772	0.099998774141
35	225590	41.569560116784	0.099998771012
35	226147	41.669558884751	0.099998767967
35	226704	41.769557649761	0.09999876501
35	227261	41.8695564119	0.099998762139
35	227818	41.969555171259	0.099998759359
35	228383	42.069566927924	0.100011756665
35	228940	42.16956568198	0.099998754056
35	229497	42.269564433501	0.099998751521
35	230054	42.369563182552	0.099998749051
35	230611	42.469561929176	0.099998746624
35	231168	42.569560673407	0.099998744231
35	231725	42.669559415258	0.099998741851
35	232282	42.769558154721	0.099998739463
35	232839	42.869556891777	0.099998737056
35	233396	42.969555626386	0.099998734609
35	233961	43.069554358505	0.099998732119
35	234518	43.169566088078	0.100011729573
35	235075	43.269564815042	0.099998726964
35	235632	43.369563539332	0.09999872429
35	236189	43.469562260873	0.099998721541
35	236746	43.56956097959	0.099998718717
35	237303	43.669559695408	0.099998715818
35	237860	43.769558408243	0.099998712835
35	238417	43.869557118015	0.099998709772
35	238974	43.969555824639	0.099998706624
35	239539	44.06955452803	0.099998703391
35	240096	44.169566228103	0.100011700073
35	240653	44.269564924771	0.099998696668
35	241210	44.369563617947	0.099998693176
35	241767	44.469562307545	0.099998689598
35	242324	44.569560993478	0.099998685933
35	242881	44.669559675669	0.099998682191
35	243438	44.769558354044	0.099998678375
35	243995	44.869557028547	0.099998674503
35	244552	44.969555699133	0.099998670586
35	245117	45.069554365783	0.09999866665
36	836	1.269557990684	0.099998953992
36	1392	1.369556944676	0.099998953992
36	1948	1.469555898668	0.099998953992
36	2504	1.56955485266	0.099998953992
36	3060	1.669566806652	0.100011953992
36	3616	1.769565760644	0.099998953992
36	4172	1.869564714636	0.099998953992
36	4728	1.969563668628	0.099998953992
36	5292	2.06956262262	0.099998953992
36	5848	2.169561576612	0.099998953992
36	6404	2.269560530604	0.099998953992
36	6960	2.369559484596	0.099998953992
36	7516	2.469558438588	0.099998953992
36	8072	2.56955739258	0.099998953992
36	8628	2.669556346572	0.099998953992
36	9184	2.769555300564	0.099998953992
36	9740	2.869554254556	0.099998953992
36	10296	2.969566208548	0.100011953992
36	10860	3.06956516254	0.099998953992
36	11416	3.169564116532	0.099998953992
36	11972	3.269563070524	0.099998953992
36	12528	3.369562024516	0.099998953992
36	13084	3.469560978508	0.099998953992
36	13640	3.5695599325	0.099998953992
36	14196	3.669558886492	0.099998953992
36	14752	3.769557840484	0.099998953992
36	15308	3.869556794476	0.099998953992
36	15864	3.969555748468	0.099998953992
36	16428	4.06955470246	0.099998953992
36	16984	4.169566656452	0.100011953992
36	17540	4.269565610444	0.099998953992
36	18096	4.369564564436	0.099998953992
36	18652	4.469563518428	0.099998953992
36	19208	4.56956247242	0.099998953992
36	19764	4.669561426412	0.099998953992
36	20320	4.769560380404	0.099998953992
36	20876	4.869559334396	0.099998953992
36	21432	4.969558288388	0.099998953992
36	21997	5.06955724238	0.099998953992
36	22554	5.169556196372	0.099998953992
36	23111	5.269555150368	0.099998953996
36	23668	5.369554104372	0.099998954004
36	24225	5.469566058395	0.100011954023
36	24782	5.569565012458	0.099998954063
36	25339	5.66956396658	0.099998954122
36	25896	5.769562920787	0.099998954207
36	26453	5.869561875102	0.099998954315
36	27010	5.969560829547	0.099998954445
36	27575	6.069559784139	0.099998954592
36	28132	6.169558738893	0.099998954754
36	28689	6.269557693824	0.099998954931
36	29246	6.369556648944	0.09999895512
36	29803	6.469555604263	0.099998955319
36	30360	6.569554559786	0.099998955523
36	30917	6.669566515528	0.100011955742
36	31474	6.769565471491	0.099998955963
36	32031	6.869564427675	0.099998956184
36	32588	6.969563384074	0.099998956399
36	33153	7.069562340681	0.099998956607
36	33710	7.169561297477	0.099998956796
36	34267	7.269560254438	0.099998956961
36	34824	7.369559211538	0.0999989571
36	35381	7.469558168744	0.099998957206
36	35938	7.569557126022	0.099998957278
36	36495	7.669556083337	0.099998957315
36	37052	7.769555040656	0.099998957319
36	37609	7.86955399795	0.099998957294
36	38166	7.969565955194	0.100011957244
36	38731	8.069564912364	0.09999895717
36	39288	8.169563869449	0.099998957085
36	39845	8.269562826426	0.099998956977
36	40402	8.369561783287	0.099998956861
36	40959	8.469560740016	0.099998956729
36	41516	8.569559696601	0.099998956585
36	42073	8.669558653037	0.099998956436
36	42630	8.769557609312	0.099998956275
36	43187	8.869556565418	0.099998956106
36	43744	8.969555521349	0.099998955931
36	44309	9.069554477094	0.099998955745
36	44866	9.169566432644	0.10001195555
36	45423	9.269565387996	0.099998955352
36	45980	9.369564343142	0.099998955146
36	46537	9.469563298075	0.099998954933
36	47094	9.56956225279	0.099998954715
36	47651	9.669561207282	0.099998954492
36	48208	9.769560161553	0.099998954271
36	48765	9.869559115609	0.099998954056
36	49322	9.969558069471	0.099998953862
36	49887	10.069557023162	0.099998953691
36	50444	10.169555976712	0.09999895355
36	51001	10.269554930157	0.099998953445
36	51558	10.369566883535	0.100011953378
36	52115	10.469565836882	0.099998953347
36	52672	10.569564790232	0.09999895335
36	53229	10.669563743612	0.09999895338
36	53786	10.76956269705	0.099998953438
36	54343	10.869561650564	0.099998953514
36	54900	10.969560604171	0.099998953607
36	55465	11.069559557886	0.099998953715
36	56022	11.169558511724	0.099998953838
36	56579	11.269557465695	0.099998953971
36	57136	11.369556419813	0.099998954118
36	57693	11.469555374083	0.09999895427
36	58250	11.569554328513	0.09999895443
36	58807	11.669566283116	0.100011954603
36	59364	11.769565237899	0.099998954783
36	59921	11.869564192867	0.099998954968
36	60478	11.969563148027	0.09999895516
36	61043	12.069562103385	0.099998955358
36	61600	12.169561058938	0.099998955553
36	62157	12.269560014679	0.099998955741
36	62714	12.369558970591	0.099998955912
36	63271	12.469557926652	0.099998956061
36	63828	12.569556882832	0.09999895618
36	64385	12.669555839099	0.099998956267
36	64942	12.769554795415	0.099998956316
36	65499	12.869566751745	0.10001195633
36	66056	12.969565708052	0.099998956307
36	66621	13.069564664313	0.099998956261
36	67178	13.169563620499	0.099998956186
36	67735	13.269562576592	0.099998956093
36	68292	13.369561532574	0.099998955982
36	68849	13.469560488431	0.099998955857
36	69406	13.569559444149	0.099998955718
36	69963	13.669558399717	0.099998955568
36	70520	13.769557355124	0.099998955407
36	71077	13.869556310362	0.099998955238
36	71634	13.969555265422	0.09999895506
36	72199	14.069554220296	0.099998954874
36	72756	14.169566174974	0.100011954678
36	73313	14.269565129453	0.099998954479
36	73870	14.369564083724	0.099998954271
36	74427	14.46956303778	0.099998954056
36	74984	14.569561991617	0.099998953837
36	75541	14.669560945237	0.09999895362
36	76098	14.769559898642	0.099998953405
36	76655	14.869558851847	0.099998953205
36	77212	14.969557804875	0.099998953028
36	77777	15.069556757754	0.099998952879
36	78334	15.169555710515	0.099998952761
36	78891	15.269554663196	0.099998952681
36	79448	15.369566615836	0.10001195264
36	80005	15.469565568467	0.099998952631
36	80562	15.56956452112	0.099998952653
36	81119	15.669563473822	0.099998952702
36	81676	15.769562426596	0.099998952774
36	82233	15.869561379458	0.099998952862
36	82790	15.969560332426	0.099998952968
36	83355	16.069559285512	0.099998953086
36	83912	16.16955823873	0.099998953218
36	84469	16.269557192091	0.099998953361
36	85026	16.369556145605	0.099998953514
36	85583	16.46955509928	0.099998953675
36	86140	16.569554053127	0.099998953847
36	86697	16.669566007152	0.100011954025
36	87254	16.769564961363	0.099998954211
36	87811	16.869563915766	0.099998954403
36	88368	16.96956287037	0.099998954604
36	88933	17.069561825177	0.099998954807
36	89490	17.16956078019	0.099998955013
36	90047	17.269559735401	0.099998955211
36	90604	17.369558690796	0.099998955395
36	91161	17.469557646353	0.099998955557
36	91718	17.569556602044	0.099998955691
36	92275	17.669555557834	0.09999895579
36	92832	17.76955451369	0.099998955856
36	93389	17.869566469572	0.100011955882
36	93946	17.969565425444	0.099998955872
36	94511	18.06956438128	0.099998955836
36	95068	18.169563337053	0.099998955773
36	95625	18.269562292744	0.099998955691
36	96182	18.369561248334	0.09999895559
36	96739	18.469560203806	0.099998955472
36	97296	18.569559159148	0.099998955342
36	97853	18.669558114346	0.099998955198
36	98410	18.769557069391	0.099998955045
36	98967	18.869556024275	0.099998954884
36	99524	18.969554978985	0.09999895471
36	100089	19.069566933515	0.10001195453
36	100646	19.169565887857	0.099998954342
36	101203	19.269564842006	0.099998954149
36	101760	19.369563795953	0.099998953947
36	102317	19.469562749691	0.099998953738
36	102874	19.569561703216	0.099998953525
36	103431	19.669560656528	0.099998953312
36	103988	19.769559609633	0.099998953105
36	104545	19.869558562546	0.099998952913
36	105102	19.969557515288	0.099998952742
36	105667	20.069556467888	0.0999989526
36	106224	20.16955542038	0.099998952492
36	106781	20.2695543728	0.09999895242
36	107338	20.369566325184	0.100011952384
36	107895	20.469565277567	0.099998952383
36	108452	20.569564229981	0.099998952414
36	109009	20.669563182448	0.099998952467
36	109566	20.76956213499	0.099998952542
36	110123	20.869561087628	0.099998952638
36	110680	20.969560040376	0.099998952748
36	111245	21.069558993251	0.099998952875
36	111802	21.169557946262	0.099998953011
36	112359	21.26955689942	0.099998953158
36	112916	21.369555852734	0.099998953314
36	113473	21.469554806215	0.099998953481
36	114030	21.569566759871	0.100011953656
36	114587	21.66956571371	0.099998953839
36	115144	21.769564667737	0.099998954027
36	115701	21.869563621963	0.099998954226
36	116258	21.969562576391	0.099998954428
36	116823	22.069561531029	0.099998954638
36	117380	22.169560485876	0.099998954847
36	117937	22.269559440925	0.099998955049
36	118494	22.369558396162	0.099998955237
36	119051	22.469557351565	0.099998955403
36	119608	22.569556307103	0.099998955538
36	120165	22.669555262749	0.099998955646
36	120722	22.769554218462	0.099998955713
36	121279	22.869566174205	0.100011955743
36	121836	22.969565129945	0.09999895574
36	122401	23.069564085651	0.099998955706
36	122958	23.169563041297	0.099998955646
36	123515	23.269561996865	0.099998955568
36	124072	23.369560952334	0.099998955469
36	124629	23.469559907689	0.099998955355
36	125186	23.569558862916	0.099998955227
36	125743	23.669557818003	0.099998955087
36	126300	23.769556772941	0.099998954938
36	126857	23.869555727718	0.099998954777
36	127414	23.969554682327	0.099998954609
36	127979	24.069566636757	0.10001195443
36	128536	24.169565591004	0.099998954247
36	129093	24.269564545055	0.099998954051
36	129650	24.369563498908	0.099998953853
36	130207	24.469562452554	0.099998953646
36	130764	24.569561405991	0.099998953437
36	131321	24.669560359217	0.099998953226
36	131878	24.769559312237	0.09999895302
36	132435	24.869558265069	0.099998952832
36	132992	24.969557217732	0.099998952663
36	133557	25.069556170254	0.099998952522
36	134114	25.16955512267	0.099998952416
36	134671	25.269554075016	0.099998952346
36	135228	25.369566027328	0.100011952312
36	135785	25.469564979642	0.099998952314
36	136342	25.569563931987	0.099998952345
36	136899	25.66956288439	0.099998952403
36	137456	25.769561836871	0.099998952481
36	138013	25.869560789448	0.099998952577
36	138570	25.969559742138	0.09999895269
36	139135	26.069558694953	0.099998952815
36	139692	26.169557647908	0.099998952955
36	140249	26.269556601011	0.099998953103
36	140806	26.369555554274	0.099998953263
36	141363	26.469554507703	0.099998953429
36	141920	26.569566461309	0.100011953606
36	142477	26.669565415099	0.09999895379
36	143034	26.769564369082	0.099998953983
36	143591	26.869563323262	0.09999895418
36	144148	26.969562277647	0.099998954385
36	144713	27.06956123224	0.099998954593
36	145270	27.169560187044	0.099998954804
36	145827	27.26955914205	0.099998955006
36	146384	27.369558097245	0.099998955195
36	146941	27.469557052607	0.099998955362
36	147498	27.56955600811	0.099998955503
36	148055	27.669554963719	0.099998955609
36	148612	27.769566919395	0.100011955676
36	149169	27.869565875104	0.099998955709
36	149726	27.96956483081	0.099998955706
36	150291	28.069563786484	0.099998955674
36	150848	28.1695627421	0.099998955616
36	151405	28.269561697636	0.099998955536
36	151962	28.369560653075	0.099998955439
36	152519	28.469559608402	0.099998955327
36	153076	28.569558563603	0.099998955201
36	153633	28.669557518664	0.099998955061
36	154190	28.769556473574	0.09999895491
36	154747	28.869555428326	0.099998954752
36	155304	28.96955438291	0.099998954584
36	155869	29.069566337316	0.100011954406
36	156426	29.169565291537	0.099998954221
36	156983	29.269564245567	0.09999895403
36	157540	29.369563199399	0.099998953832
36	158097	29.469562153023	0.099998953624
36	158654	29.56956110644	0.099998953417
36	159211	29.669560059645	0.099998953205
36	159768	29.769559012646	0.099998953001
36	160325	29.869557965457	0.099998952811
36	160882	29.969556918101	0.099998952644
36	161447	30.069555870607	0.099998952506
36	162004	30.169554823007	0.0999989524
36	162561	30.26956677534	0.100011952333
36	163118	30.369565727647	0.099998952307
36	163675	30.469564679972	0.099998952325
36	164232	30.569563632353	0.099998952381
36	164789	30.669562584834	0.099998952481
36	165346	30.769561537458	0.099998952624
36	165903	30.869560490264	0.099998952806
36	166460	30.969559443295	0.099998953031
36	167025	31.069558396593	0.099998953298
36	167582	31.169557350199	0.099998953606
36	168139	31.269556304154	0.099998953955
36	168696	31.3695552585	0.099998954346
36	169253	31.469554213282	0.099998954782
36	169810	31.569566168537	0.100011955255
36	170367	31.669565124307	0.09999895577
36	170924	31.769564080634	0.099998956327
36	171481	31.869563037562	0.099998956928
36	172038	31.969561995129	0.099998957567
36	172603	32.069560953377	0.099998958248
36	173160	32.16955991234	0.099998958963
36	173717	32.26955887204	0.0999989597
36	174274	32.369557832489	0.099998960449
36	174831	32.469556793686	0.099998961197
36	175388	32.569555755606	0.09999896192
36	175945	32.669554718211	0.099998962605
36	176502	32.769566681439	0.100011963228
36	177059	32.869565645213	0.099998963774
36	177616	32.969564609443	0.09999896423
36	178181	33.069563574029	0.099998964586
36	178738	33.169562538858	0.099998964829
36	179295	33.269561503813	0.099998964955
36	179852	33.369560468769	0.099998964956
36	180409	33.469559433599	0.09999896483
36	180966	33.56955839817	0.099998964571
36	181523	33.669557362344	0.099998964174
36	182080	33.769556325987	0.099998963643
36	182637	33.869555288956	0.099998962969
36	183194	33.969554251112	0.099998962156
36	183759	34.069566212311	0.100011961199
36	184316	34.169565172409	0.099998960098
36	184873	34.269564131266	0.099998958857
36	185430	34.369563088732	0.099998957466
36	185987	34.469562044665	0.099998955933
36	186544	34.569560998923	0.099998954258
36	187101	34.669559951367	0.099998952444
36	187658	34.76955890187	0.099998950503
36	188215	34.869557850316	0.099998948446
36	188772	34.969556796604	0.099998946288
36	189337	35.069555740658	0.099998944054
36	189894	35.169554682414	0.099998941756
36	190451	35.269566621826	0.100011939412
36	191008	35.369565558874	0.099998937048
36	191565	35.469564493545	0.099998934671
36	192122	35.569563425838	0.099998932293
36	192679	35.669562355769	0.099998929931
36	193236	35.76956128335	0.099998927581
36	193793	35.86956020861	0.09999892526
36	194350	35.969559131583	0.099998922973
36	194915	36.0695580523	0.099998920717
36	195472	36.169556970799	0.099998918499
36	196029	36.269555887127	0.099998916328
36	196586	36.369554801326	0.099998914199
36	197143	36.469566713443	0.100011912117
36	197700	36.569565623529	0.099998910086
36	198257	36.669564531637	0.099998908108
36	198814	36.769563437819	0.099998906182
36	199371	36.869562342129	0.09999890431
36	199928	36.969561244625	0.099998902496
36	200493	37.069560145361	0.099998900736
36	201050	37.169559044389	0.099998899028
36	201607	37.269557941751	0.099998897362
36	202164	37.369556837479	0.099998895728
36	202721	37.46955573159	0.099998894111
36	203278	37.569554624081	0.099998892491
36	203835	37.669566514936	0.100011890855
36	204392	37.769565404116	0.09999888918
36	204949	37.86956429157	0.099998887454
36	205506	37.969563177231	0.099998885661
36	206071	38.069562061025	0.099998883794
36	206628	38.169560942865	0.09999888184
36	207185	38.269559822662	0.099998879797
36	207742	38.369558700318	0.099998877656
36	208299	38.469557575732	0.099998875414
36	208856	38.569556448799	0.099998873067
36	209413	38.669555319417	0.099998870618
36	209970	38.769554187475	0.099998868058
36	210527	38.869566052863	0.100011865388
36	211084	38.969564915472	0.099998862609
36	211649	39.069563775189	0.099998859717
36	212206	39.1695626319	0.099998856711
36	212763	39.269561485499	0.099998853599
36	213320	39.369560335869	0.09999885037
36	213877	39.469559182899	0.09999884703
36	214434	39.569558026478	0.099998843579
36	214991	39.669556866502	0.099998840024
36	215548	39.769555702876	0.099998836374
36	216105	39.869554535519	0.099998832643
36	216662	39.969566364367	0.100011828848
36	217227	40.069565189372	0.099998825005
36	217784	40.169564010505	0.099998821133
36	218341	40.269562827756	0.099998817251
36	218898	40.369561641136	0.09999881338
36	219455	40.46956045067	0.099998809534
36	220012	40.56955925639	0.09999880572
36	220569	40.66955805834	0.09999880195
36	221126	40.769556856576	0.099998798236
36	221683	40.869555651156	0.09999879458
36	222240	40.969554442145	0.099998790989
36	222805	41.069566229612	0.100011787467
36	223362	41.169565013631	0.099998784019
36	223919	41.269563794278	0.099998780647
36	224476	41.369562571631	0.099998777353
36	225033	41.469561345772	0.099998774141
36	225590	41.569560116784	0.099998771012
36	226147	41.669558884751	0.099998767967
36	226704	41.769557649761	0.09999876501
36	227261	41.8695564119	0.099998762139
36	227818	41.969555171259	0.099998759359
36	228383	42.069566927924	0.100011756665
36	228940	42.16956568198	0.099998754056
36	229497	42.269564433501	0.099998751521
36	230054	42.369563182552	0.099998749051
36	230611	42.469561929176	0.099998746624
36	231168	42.569560673407	0.099998744231
36	231725	42.669559415258	0.099998741851
36	232282	42.769558154721	0.099998739463
36	232839	42.869556891777	0.099998737056
36	233396	42.969555626386	0.099998734609
36	233961	43.069554358505	0.099998732119
36	234518	43.169566088078	0.100011729573
36	235075	43.269564815042	0.099998726964
36	235632	43.369563539332	0.09999872429
36	236189	43.469562260873	0.099998721541
36	236746	43.56956097959	0.099998718717
36	237303	43.669559695408	0.099998715818
36	237860	43.769558408243	0.099998712835
36	238417	43.869557118015	0.099998709772
36	238974	43.969555824639	0.099998706624
36	239539	44.06955452803	0.099998703391
36	240096	44.169566228103	0.100011700073
36	240653	44.269564924771	0.099998696668
36	241210	44.369563617947	0.099998693176
36	241767	44.469562307545	0.099998689598
36	242324	44.569560993478	0.099998685933
36	242881	44.669559675669	0.099998682191
36	243438	44.769558354044	0.099998678375
36	243995	44.869557028547	0.099998674503
36	244552	44.969555699133	0.099998670586
36	245117	45.069554365783	0.09999866665
