version 2
run SinusoidalJammingDetail-193-20170803-15:38:45-37819
attr CACCSpacing 5
attr attackAcc -30
attr attackPos 7
attr attackSpeed 150
attr attackStart 31
attr attacker 1
attr beaconInterval 0.1
attr configname SinusoidalJammingDetail
attr controller 2
attr datetime 20170803-15:38:45
attr experiment SinusoidalJammingDetail
attr fakeAcc "(1 == 4)"
attr fakePos "(1 == 2)"
attr fakeSpeed "(1 == 3)"
attr inifile omnetpp_193.ini
attr iterationvars "$leaderSpeed=50, $controller=2, $CACCSpacing=5, $sController=\"PLOEG\", $attacker=1, $attackStart=31, $attackSpeed=150, $attackPos=7, $attackAcc=-30, $0=5, $1=0.5, $nCars=8, $platoonSize=8, $nLanes=1, $beaconInterval=0.1, $priority=2, $packetSize=200, $ploegH=0.5, $leaderHeadway=1.2, $fakeSpeed=(1 == 3), $fakeAcc=(1 == 4), $fakePos=(1 == 2)"
attr iterationvarsf leaderSpeed=50,controller=2,CACCSpacing=5,sController=PLOEG,attacker=1,attackStart=31,attackSpeed=150,attackPos=7,attackAcc=-30,5,0.5,nCars=8,platoonSize=8,nLanes=1,beaconInterval=0.1,priority=2,packetSize=200,ploegH=0.5,leaderHeadway=1.2,fakeSpeed=(1_==_3),fakeAcc=(1_==_4),fakePos=(1_==_2)-
attr leaderHeadway 1.2
attr leaderSpeed 50
attr measurement "$leaderSpeed=50, $controller=2, $CACCSpacing=5, $sController=\"PLOEG\", $attacker=1, $attackStart=31, $attackSpeed=150, $attackPos=7, $attackAcc=-30, $0=5, $1=0.5, $nCars=8, $platoonSize=8, $nLanes=1, $beaconInterval=0.1, $priority=2, $packetSize=200, $ploegH=0.5, $leaderHeadway=1.2, $fakeSpeed=(1 == 3), $fakeAcc=(1 == 4), $fakePos=(1 == 2)"
attr nCars 8
attr nLanes 1
attr network scenario
attr packetSize 200
attr platoonSize 8
attr ploegH 0.5
attr priority 2
attr processid 37819
attr repetition 3
attr replication #3
attr resultdir results
attr runnumber 193
attr sController "\"PLOEG\""
attr seedset 3
param **.coreDebug false
param **.debug false
param **.headway 0.1s
param **.numberOfCars 8
param **.numberOfCarsPerPlatoon 8
param **.numberOfLanes 1
param **.numericController 2
param **.traffic.nCars 8
param **.traffic.nLanes 1
param **.traffic.platoonInsertDistance 5m
param **.traffic.platoonInsertHeadway 0.5s
param **.traffic.platoonInsertSpeed 50kmph
param **.traffic.platoonInsertTime "1 s"
param **.traffic.platoonLeaderHeadway 1.2s
param **.traffic.platoonSize 8
param **.traffic.platooningVType "\"vtypeauto\""
param **.traffic_type "\"PlatoonsTrafficManager\""
param *.**.nic.mac1609_4.bitrate 6Mbps
param *.**.nic.mac1609_4.txPower 100mW
param *.**.nic.mac1609_4.useServiceChannel false
param *.**.nic.phy80211p.analogueModels "xmldoc(\"config.xml\")"
param *.**.nic.phy80211p.decider "xmldoc(\"config.xml\")"
param *.**.nic.phy80211p.maxTXPower 100mW
param *.**.nic.phy80211p.sensitivity -94dBm
param *.**.nic.phy80211p.thermalNoise -95dBm
param *.**.nic.phy80211p.usePropagationDelay true
param *.**.nic.phy80211p.useThermalNoise true
param *.annotations.draw false
param *.connectionManager.alpha 2.0
param *.connectionManager.carrierFrequency "5.890e9 Hz"
param *.connectionManager.pMax 100mW
param *.connectionManager.sat -94dBm
param *.connectionManager.sendDirect true
param *.manager.autoShutdown true
param *.manager.commandLine "\"sumo --remote-port $port --seed $seed --configuration-file $configFile\""
param *.manager.configFile "\"./sumocfg/freeway.sumo.cfg\""
param *.manager.host "\"localhost\""
param *.manager.margin 25
param *.manager.moduleDisplayString "\"\""
param *.manager.moduleName "\"node\""
param *.manager.moduleType "\"Car\""
param *.manager.updateInterval 0.01s
param *.node[*].appl.attackStart 31s
param *.node[*].appl.attackerType 1
param *.node[*].appl.simulationDuration "60 s"
param *.node[*].appl_type "\"SimplePlatooningApp\""
param *.node[*].helper.nCars 8
param *.node[*].helper.nLanes 1
param *.node[*].helper.platoonSize 8
param *.node[*].helper_type "\"PositionHelper\""
param *.node[*].mobility.x 0
param *.node[*].mobility.y 0
param *.node[*].mobility.z 1.895
param *.node[*].prot.attackStart 31s
param *.node[*].prot.attackerType 1
param *.node[*].prot.attackingNode 3
param *.node[*].prot.beaconingInterval 0.1s
param *.node[*].prot.fakeAcc "(1 == 4)"
param *.node[*].prot.fakePos "(1 == 2)"
param *.node[*].prot.fakeSpeed "(1 == 3)"
param *.node[*].prot.maliciousAcc "-30 mpss"
param *.node[*].prot.maliciousSpeed 150kmph
param *.node[*].prot.packetSize 200
param *.node[*].prot.priority 2
param *.node[*].prot.shiftX "7 m"
param *.node[*].prot.useControllerAcceleration true
param *.node[*].protocol_type "\"SimplePlatooningBeaconing\""
param *.node[*].scenario.accHeadway 0.1s
param *.node[*].scenario.caccC1 0.5
param *.node[*].scenario.caccOmegaN "0.2 Hz"
param *.node[*].scenario.caccSpacing 5m
param *.node[*].scenario.caccXi 1
param *.node[*].scenario.controller "\"PLOEG\""
param *.node[*].scenario.engineTau "0.5 s"
param *.node[*].scenario.leaderHeadway 1.2s
param *.node[*].scenario.leaderOscillationFrequency "0.2 Hz"
param *.node[*].scenario.leaderSpeed 50kmph
param *.node[*].scenario.oscillationAmplitude "10 kmph"
param *.node[*].scenario.ploegH 0.5s
param *.node[*].scenario.ploegKd 0.7
param *.node[*].scenario.ploegKp 0.2
param *.node[*].scenario.startOscillating "5 s"
param *.node[*].scenario.useRealisticEngine false
param *.node[*].scenario_type "\"SinusoidalScenario\""
param *.node[*].unicast.packetLossRate 0
param *.obstacles.debug false
param *.playgroundSizeX 65000m
param *.playgroundSizeY 25000m
param *.playgroundSizeZ 50m
param *.world.use2D false
param *.world.useTorus false

vector 0  scenario.node[0].appl  distance  ETV
vector 1  scenario.node[0].appl  relativeSpeed  ETV
vector 2  scenario.node[0].appl  nodeId  ETV
vector 6  scenario.node[0].appl  acceleration  ETV
vector 7  scenario.node[0].appl  controllerAcceleration  ETV
vector 3  scenario.node[0].appl  speed  ETV
vector 4  scenario.node[0].appl  posx  ETV
vector 5  scenario.node[0].appl  posy  ETV
vector 22  scenario.node[1].appl  distance  ETV
vector 23  scenario.node[1].appl  relativeSpeed  ETV
vector 24  scenario.node[1].appl  nodeId  ETV
vector 28  scenario.node[1].appl  acceleration  ETV
vector 29  scenario.node[1].appl  controllerAcceleration  ETV
vector 25  scenario.node[1].appl  speed  ETV
vector 26  scenario.node[1].appl  posx  ETV
vector 27  scenario.node[1].appl  posy  ETV
vector 44  scenario.node[2].appl  distance  ETV
vector 45  scenario.node[2].appl  relativeSpeed  ETV
vector 46  scenario.node[2].appl  nodeId  ETV
vector 50  scenario.node[2].appl  acceleration  ETV
vector 51  scenario.node[2].appl  controllerAcceleration  ETV
vector 47  scenario.node[2].appl  speed  ETV
vector 48  scenario.node[2].appl  posx  ETV
vector 49  scenario.node[2].appl  posy  ETV
vector 66  scenario.node[3].appl  distance  ETV
vector 67  scenario.node[3].appl  relativeSpeed  ETV
vector 68  scenario.node[3].appl  nodeId  ETV
vector 72  scenario.node[3].appl  acceleration  ETV
vector 73  scenario.node[3].appl  controllerAcceleration  ETV
vector 69  scenario.node[3].appl  speed  ETV
vector 70  scenario.node[3].appl  posx  ETV
vector 71  scenario.node[3].appl  posy  ETV
vector 88  scenario.node[4].appl  distance  ETV
vector 89  scenario.node[4].appl  relativeSpeed  ETV
vector 90  scenario.node[4].appl  nodeId  ETV
vector 94  scenario.node[4].appl  acceleration  ETV
vector 95  scenario.node[4].appl  controllerAcceleration  ETV
vector 91  scenario.node[4].appl  speed  ETV
vector 92  scenario.node[4].appl  posx  ETV
vector 93  scenario.node[4].appl  posy  ETV
vector 110  scenario.node[5].appl  distance  ETV
vector 111  scenario.node[5].appl  relativeSpeed  ETV
vector 112  scenario.node[5].appl  nodeId  ETV
vector 116  scenario.node[5].appl  acceleration  ETV
vector 117  scenario.node[5].appl  controllerAcceleration  ETV
vector 113  scenario.node[5].appl  speed  ETV
vector 114  scenario.node[5].appl  posx  ETV
vector 115  scenario.node[5].appl  posy  ETV
vector 132  scenario.node[6].appl  distance  ETV
vector 133  scenario.node[6].appl  relativeSpeed  ETV
vector 134  scenario.node[6].appl  nodeId  ETV
vector 138  scenario.node[6].appl  acceleration  ETV
vector 139  scenario.node[6].appl  controllerAcceleration  ETV
vector 135  scenario.node[6].appl  speed  ETV
vector 136  scenario.node[6].appl  posx  ETV
vector 137  scenario.node[6].appl  posy  ETV
vector 154  scenario.node[7].appl  distance  ETV
vector 155  scenario.node[7].appl  relativeSpeed  ETV
vector 156  scenario.node[7].appl  nodeId  ETV
vector 160  scenario.node[7].appl  acceleration  ETV
vector 161  scenario.node[7].appl  controllerAcceleration  ETV
vector 157  scenario.node[7].appl  speed  ETV
vector 158  scenario.node[7].appl  posx  ETV
vector 159  scenario.node[7].appl  posy  ETV
vector 35  scenario.node[1].prot  leaderDelay  ETV
vector 33  scenario.node[1].prot  leaderDelayId  ETV
vector 36  scenario.node[1].prot  frontDelay  ETV
vector 34  scenario.node[1].prot  frontDelayId  ETV
vector 57  scenario.node[2].prot  leaderDelay  ETV
vector 55  scenario.node[2].prot  leaderDelayId  ETV
vector 79  scenario.node[3].prot  leaderDelay  ETV
vector 77  scenario.node[3].prot  leaderDelayId  ETV
vector 101  scenario.node[4].prot  leaderDelay  ETV
vector 99  scenario.node[4].prot  leaderDelayId  ETV
vector 123  scenario.node[5].prot  leaderDelay  ETV
vector 121  scenario.node[5].prot  leaderDelayId  ETV
vector 145  scenario.node[6].prot  leaderDelay  ETV
vector 143  scenario.node[6].prot  leaderDelayId  ETV
vector 167  scenario.node[7].prot  leaderDelay  ETV
vector 165  scenario.node[7].prot  leaderDelayId  ETV
vector 168  scenario.node[7].prot  frontDelay  ETV
vector 166  scenario.node[7].prot  frontDelayId  ETV
vector 58  scenario.node[2].prot  frontDelay  ETV
vector 56  scenario.node[2].prot  frontDelayId  ETV
vector 124  scenario.node[5].prot  frontDelay  ETV
vector 122  scenario.node[5].prot  frontDelayId  ETV
vector 80  scenario.node[3].prot  frontDelay  ETV
vector 78  scenario.node[3].prot  frontDelayId  ETV
vector 146  scenario.node[6].prot  frontDelay  ETV
vector 144  scenario.node[6].prot  frontDelayId  ETV
vector 102  scenario.node[4].prot  frontDelay  ETV
vector 100  scenario.node[4].prot  frontDelayId  ETV
vector 8  scenario.node[0].prot  nodeId  ETV
vector 9  scenario.node[0].prot  busyTime  ETV
vector 10  scenario.node[0].prot  collisions  ETV
vector 30  scenario.node[1].prot  nodeId  ETV
vector 31  scenario.node[1].prot  busyTime  ETV
vector 32  scenario.node[1].prot  collisions  ETV
vector 52  scenario.node[2].prot  nodeId  ETV
vector 53  scenario.node[2].prot  busyTime  ETV
vector 54  scenario.node[2].prot  collisions  ETV
vector 74  scenario.node[3].prot  nodeId  ETV
vector 75  scenario.node[3].prot  busyTime  ETV
vector 76  scenario.node[3].prot  collisions  ETV
vector 96  scenario.node[4].prot  nodeId  ETV
vector 97  scenario.node[4].prot  busyTime  ETV
vector 98  scenario.node[4].prot  collisions  ETV
vector 118  scenario.node[5].prot  nodeId  ETV
vector 119  scenario.node[5].prot  busyTime  ETV
vector 120  scenario.node[5].prot  collisions  ETV
vector 140  scenario.node[6].prot  nodeId  ETV
vector 141  scenario.node[6].prot  busyTime  ETV
vector 142  scenario.node[6].prot  collisions  ETV
vector 162  scenario.node[7].prot  nodeId  ETV
vector 163  scenario.node[7].prot  busyTime  ETV
vector 164  scenario.node[7].prot  collisions  ETV
7	232	1.11	-4.215365603244e-07
7	788	1.21	-4.123519392607e-07
7	1344	1.31	-3.9742146640265e-07
7	1900	1.41	-3.7804518804307e-07
7	2456	1.51	-3.5536931619617e-07
7	3012	1.61	-3.3039333047213e-07
7	3568	1.71	-3.039784495229e-07
7	4124	1.81	-2.7685694803381e-07
7	4680	1.91	-2.4964219491608e-07
7	5244	2.01	-2.2283905920517e-07
7	5800	2.11	-1.9685434082817e-07
7	6356	2.21	-1.7200705926257e-07
7	6912	2.31	-1.4853853436136e-07
7	7468	2.41	-1.2662199289082e-07
7	8024	2.51	-1.0637172032091e-07
7	8580	2.61	-8.7851576680009e-08
7	9136	2.71	-7.1082913777332e-08
7	9692	2.81	-5.6051822738823e-08
7	10248	2.91	-4.2715759818179e-08
7	10812	3.01	-3.1009408374416e-08
7	11368	3.11	-2.0849929782685e-08
7	11924	3.21	-1.2141658345399e-08
7	12480	3.31	-4.7800785551999e-09
7	13036	3.41	1.3447181146375e-09
7	13592	3.51	6.3450702469936e-09
7	14148	3.61	1.0333288003039e-08
7	14704	3.71	1.3419677813431e-08
7	15260	3.81	1.5710899248234e-08
7	15816	3.91	1.7308703803565e-08
7	16380	4.01	1.830899876154e-08
7	16936	4.11	1.8801173951033e-08
7	17492	4.21	1.8867702067382e-08
7	18048	4.31	1.8583865113442e-08
7	18604	4.41	1.8017717096086e-08
7	19160	4.51	1.723012310606e-08
7	19716	4.61	1.6274986691656e-08
7	20272	4.71	1.5199535852162e-08
7	20828	4.81	1.4044672980162e-08
7	21384	4.91	1.2845363883685e-08
7	21949	5.01	1.1631094309905e-08
7	22506	5.11	0.3481478814383
7	23063	5.21	0.68726936236521
7	23620	5.31	1.0064706229906
7	24177	5.41	1.2963311628453
7	24734	5.51	1.5
7	25291	5.61	1.5
7	25848	5.71	1.5
7	26405	5.81	1.5
7	26962	5.91	1.5
7	27527	6.01	1.5
7	28084	6.11	1.5
7	28641	6.21	1.5
7	29198	6.31	1.5
7	29755	6.41	1.5
7	30312	6.51	1.4919234130517
7	30869	6.61	1.2264993275909
7	31426	6.71	0.92305383931647
7	31983	6.81	0.58908101929403
7	32540	6.91	0.23235621605629
7	33105	7.01	-0.13919559804423
7	33662	7.11	-0.51762846559318
7	34219	7.21	-0.89509993922417
7	34776	7.31	-1.2639902882471
7	35333	7.41	-1.5
7	35890	7.51	-1.5
7	36447	7.61	-1.5
7	37004	7.71	-1.5
7	37561	7.81	-1.5
7	38118	7.91	-1.5
7	38683	8.01	-1.5
7	39240	8.11	-1.5
7	39797	8.21	-1.5
7	40354	8.31	-1.5
7	40911	8.41	-1.5
7	41468	8.51	-1.5
7	42025	8.61	-1.5
7	42582	8.71	-1.5
7	43139	8.81	-1.5
7	43696	8.91	-1.5
7	44261	9.01	-1.5
7	44818	9.11	-1.5
7	45375	9.21	-1.5
7	45932	9.31	-1.5
7	46489	9.41	-1.5
7	47046	9.51	-1.1784535904988
7	47603	9.61	-0.73985166426131
7	48160	9.71	-0.29046662065306
7	48717	9.81	0.15868205664034
7	49274	9.91	0.59737147685681
7	49839	10.01	1.0162504341391
7	50396	10.11	1.4069035498462
7	50953	10.21	1.5
7	51510	10.31	1.5
7	52067	10.41	1.5
7	52624	10.51	1.5
7	53181	10.61	1.5
7	53738	10.71	1.5
7	54295	10.81	1.5
7	54852	10.91	1.5
7	55417	11.01	1.5
7	55974	11.11	1.5
7	56531	11.21	1.5
7	57088	11.31	1.5
7	57645	11.41	1.5
7	58202	11.51	1.5
7	58759	11.61	1.5
7	59316	11.71	1.5
7	59873	11.81	1.5
7	60430	11.91	1.1420569523224
7	60995	12.01	0.73271074172757
7	61552	12.11	0.30763491701868
7	62109	12.21	-0.12290183401692
7	62666	12.31	-0.54917422866109
7	63223	12.41	-0.96209331717302
7	63780	12.51	-1.3532900275371
7	64337	12.61	-1.5
7	64894	12.71	-1.5
7	65451	12.81	-1.5
7	66008	12.91	-1.5
7	66573	13.01	-1.5
7	67130	13.11	-1.5
7	67687	13.21	-1.5
7	68244	13.31	-1.5
7	68801	13.41	-1.5
7	69358	13.51	-1.5
7	69915	13.61	-1.5
7	70472	13.71	-1.5
7	71029	13.81	-1.5
7	71586	13.91	-1.5
7	72151	14.01	-1.5
7	72708	14.11	-1.5
7	73265	14.21	-1.5
7	73822	14.31	-1.5
7	74379	14.41	-1.3008305793183
7	74936	14.51	-0.88835736021285
7	75493	14.61	-0.45792464374985
7	76050	14.71	-0.020297800482021
7	76607	14.81	0.4143593475729
7	77164	14.91	0.8365748748462
7	77729	15.01	1.2376491838941
7	78286	15.11	1.5
7	78843	15.21	1.5
7	79400	15.31	1.5
7	79957	15.41	1.5
7	80514	15.51	1.5
7	81071	15.61	1.5
7	81628	15.71	1.5
7	82185	15.81	1.5
7	82742	15.91	1.5
7	83307	16.01	1.5
7	83864	16.11	1.5
7	84421	16.21	1.5
7	84978	16.31	1.5
7	85535	16.41	1.5
7	86092	16.51	1.5
7	86649	16.61	1.5
7	87206	16.71	1.5
7	87763	16.81	1.5
7	88320	16.91	1.2451238477388
7	88885	17.01	0.83347870135435
7	89442	17.11	0.40470958876969
7	89999	17.21	-0.030598062218257
7	90556	17.31	-0.46243980386594
7	91113	17.41	-0.8814833530456
7	91670	17.51	-1.2791500631716
7	92227	17.61	-1.5
7	92784	17.71	-1.5
7	93341	17.81	-1.5
7	93898	17.91	-1.5
7	94463	18.01	-1.5
7	95020	18.11	-1.5
7	95577	18.21	-1.5
7	96134	18.31	-1.5
7	96691	18.41	-1.5
7	97248	18.51	-1.5
7	97805	18.61	-1.5
7	98362	18.71	-1.5
7	98919	18.81	-1.5
7	99476	18.91	-1.5
7	100041	19.01	-1.5
7	100598	19.11	-1.5
7	101155	19.21	-1.5
7	101712	19.31	-1.5
7	102269	19.41	-1.2657245815134
7	102826	19.51	-0.85377693481579
7	103383	19.61	-0.42439560038158
7	103940	19.71	0.011767371267542
7	104497	19.81	0.44464851836336
7	105054	19.91	0.86486384400473
7	105619	20.01	1.2637899041122
7	106176	20.11	1.5
7	106733	20.21	1.5
7	107290	20.31	1.5
7	107847	20.41	1.5
7	108404	20.51	1.5
7	108961	20.61	1.5
7	109518	20.71	1.5
7	110075	20.81	1.5
7	110632	20.91	1.5
7	111197	21.01	1.5
7	111754	21.11	1.5
7	112311	21.21	1.5
7	112868	21.31	1.5
7	113425	21.41	1.5
7	113982	21.51	1.5
7	114539	21.61	1.5
7	115096	21.71	1.5
7	115653	21.81	1.5
7	116210	21.91	1.2580915517758
7	116775	22.01	0.84625491634779
7	117332	22.11	0.41709956367461
7	117889	22.21	-0.018747163543122
7	118446	22.31	-0.45124369149455
7	119003	22.41	-0.8710252053863
7	119560	22.51	-1.26948487946
7	120117	22.61	-1.5
7	120674	22.71	-1.5
7	121231	22.81	-1.5
7	121788	22.91	-1.5
7	122353	23.01	-1.5
7	122910	23.11	-1.5
7	123467	23.21	-1.5
7	124024	23.31	-1.5
7	124581	23.41	-1.5
7	125138	23.51	-1.5
7	125695	23.61	-1.5
7	126252	23.71	-1.5
7	126809	23.81	-1.5
7	127366	23.91	-1.5
7	127931	24.01	-1.5
7	128488	24.11	-1.5
7	129045	24.21	-1.5
7	129602	24.31	-1.5
7	130159	24.41	-1.260923965112
7	130716	24.51	-0.84904615684565
7	131273	24.61	-0.41980696481147
7	131830	24.71	0.01615709944571
7	132387	24.81	0.44879633965971
7	132944	24.91	0.86873882266827
7	133509	25.01	1.2673715557189
7	134066	25.11	1.5
7	134623	25.21	1.5
7	135180	25.31	1.5
7	135737	25.41	1.5
7	136294	25.51	1.5
7	136851	25.61	1.5
7	137408	25.71	1.5
7	137965	25.81	1.5
7	138522	25.91	1.5
7	139087	26.01	1.5
7	139644	26.11	1.5
7	140201	26.21	1.5
7	140758	26.31	1.5
7	141315	26.41	1.5
7	141872	26.51	1.5
7	142429	26.61	1.5
7	142986	26.71	1.5
7	143543	26.81	1.5
7	144100	26.91	1.259872851863
7	144665	27.01	0.84801032251393
7	145222	27.11	0.41880224309103
7	145779	27.21	-0.017118277442348
7	146336	27.31	-0.44970455708455
7	146893	27.41	-0.86958730431938
7	147450	27.51	-1.2681558149833
7	148007	27.61	-1.5
7	148564	27.71	-1.5
7	149121	27.81	-1.5
7	149678	27.91	-1.5
7	150243	28.01	-1.5
7	150800	28.11	-1.5
7	151357	28.21	-1.5
7	151914	28.31	-1.5
7	152471	28.41	-1.5
7	153028	28.51	-1.5
7	153585	28.61	-1.5
7	154142	28.71	-1.5
7	154699	28.81	-1.5
7	155256	28.91	-1.5
7	155821	29.01	-1.5
7	156378	29.11	-1.5
7	156935	29.21	-1.5
7	157492	29.31	-1.5
7	158049	29.41	-1.2602629232527
7	158606	29.51	-0.84839472385746
7	159163	29.61	-0.41917509845393
7	159720	29.71	0.016761581285863
7	160277	29.81	0.44936751475712
7	160834	29.91	0.86927243012053
7	161399	30.01	1.2678647739099
7	161956	30.11	1.5
7	162513	30.21	1.5
7	163070	30.31	1.5
7	163627	30.41	1.5
7	164184	30.51	1.5
7	164741	30.61	1.5
7	165298	30.71	1.5
7	165855	30.81	1.5
7	166412	30.91	1.5
7	166977	31.01	1.5
7	167534	31.11	1.5
7	168091	31.21	1.5
7	168648	31.31	1.5
7	169205	31.41	1.5
7	169762	31.51	1.5
7	170319	31.61	1.5
7	170876	31.71	1.5
7	171433	31.81	1.5
7	171990	31.91	1.2601181665191
7	172555	32.01	0.84825207129591
7	173112	32.11	0.4190367306424
7	173669	32.21	-0.01689395236456
7	174226	32.31	-0.44949259223739
7	174783	32.41	-0.86938928093775
7	175340	32.51	-1.2679727801784
7	175897	32.61	-1.5
7	176454	32.71	-1.5
7	177011	32.81	-1.5
7	177568	32.91	-1.5
7	178133	33.01	-1.5
7	178690	33.11	-1.5
7	179247	33.21	-1.5
7	179804	33.31	-1.5
7	180361	33.41	-1.5
7	180918	33.51	-1.5
7	181475	33.61	-1.5
7	182032	33.71	-1.5
7	182589	33.81	-1.5
7	183146	33.91	-1.5
7	183711	34.01	-1.5
7	184268	34.11	-1.5
7	184825	34.21	-1.5
7	185382	34.31	-1.5
7	185939	34.41	-1.2601718862043
7	186496	34.51	-0.8483050101162
7	187053	34.61	-0.4190880793783
7	187610	34.71	0.016844829035321
7	188167	34.81	0.44944617558577
7	188724	34.91	0.86934591722702
7	189289	35.01	1.2679326987079
7	189846	35.11	1.5
7	190403	35.21	1.5
7	190960	35.31	1.5
7	191517	35.41	1.5
7	192074	35.51	1.5
7	192631	35.61	1.5
7	193188	35.71	1.5
7	193745	35.81	1.5
7	194302	35.91	1.5
7	194867	36.01	1.5
7	195424	36.11	1.5
7	195981	36.21	1.5
7	196538	36.31	1.5
7	197095	36.41	1.5
7	197652	36.51	1.5
7	198209	36.61	1.5
7	198766	36.71	1.5
7	199323	36.81	1.5
7	199880	36.91	1.260151950659
7	200445	37.01	0.8482853643524
7	201002	37.11	0.41906902369986
7	201559	37.21	-0.016863058858293
7	202116	37.31	-0.44946340095208
7	202673	37.41	-0.86936200963733
7	203230	37.51	-1.2679475730685
7	203787	37.61	-1.5
7	204344	37.71	-1.5
7	204901	37.81	-1.5
7	205458	37.91	-1.5
7	206023	38.01	-1.5
7	206580	38.11	-1.5
7	207137	38.21	-1.5
7	207694	38.31	-1.5
7	208251	38.41	-1.5
7	208808	38.51	-1.5
7	209365	38.61	-1.5
7	209922	38.71	-1.5
7	210479	38.81	-1.5
7	211036	38.91	-1.5
7	211601	39.01	-1.5
7	212158	39.11	-1.5
7	212715	39.21	-1.5
7	213272	39.31	-1.5
7	213829	39.41	-1.2601593488024
7	214386	39.51	-0.84829265495693
7	214943	39.61	-0.41907609532189
7	215500	39.71	0.016856293713799
7	216057	39.81	0.44945700856461
7	216614	39.91	0.86935603769337
7	217179	40.01	1.2679420531466
7	217736	40.11	1.5
7	218293	40.21	1.5
7	218850	40.31	1.5
7	219407	40.41	1.5
7	219964	40.51	1.5
7	220521	40.61	1.5
7	221078	40.71	1.5
7	221635	40.81	1.5
7	222192	40.91	1.5
6	232	1.11	-6.1957727837125e-08
6	788	1.21	-1.257166815094e-07
6	1344	1.31	-1.7576642363792e-07
6	1900	1.41	-2.1367210223389e-07
6	2456	1.51	-2.40935627005e-07
6	3012	1.61	-2.5897985977963e-07
6	3568	1.71	-2.6913706818732e-07
6	4124	1.81	-2.7264253077419e-07
6	4680	1.91	-2.70628319754e-07
6	5244	2.01	-2.6412187992264e-07
6	5800	2.11	-2.540470944723e-07
6	6356	2.21	-2.4122570607688e-07
6	6912	2.31	-2.2638122487706e-07
6	7468	2.41	-2.1014301410105e-07
6	8024	2.51	-1.9305321785623e-07
6	8580	2.61	-1.7557066911422e-07
6	9136	2.71	-1.5808012676644e-07
6	9692	2.81	-1.408965388805e-07
6	10248	2.91	-1.2427268103465e-07
6	10812	3.01	-1.0840643938081e-07
6	11368	3.11	-9.3446494986438e-08
6	11924	3.21	-7.9497652905047e-08
6	12480	3.31	-6.662919105338e-08
6	13036	3.41	-5.487734711096e-08
6	13592	3.51	-4.4252601583139e-08
6	14148	3.61	-3.474287524341e-08
6	14704	3.71	-2.631832529687e-08
6	15260	3.81	-1.8935253365271e-08
6	15816	3.91	-1.2538947657958e-08
6	16380	4.01	-7.0667027785021e-09
6	16936	4.11	-2.4508395313205e-09
6	17492	4.21	1.3796963571622e-09
6	18048	4.31	4.4970249746257e-09
6	18604	4.41	6.9737993158014e-09
6	19160	4.51	8.8805407472137e-09
6	19716	4.61	1.0285283735811e-08
6	20272	4.71	1.1253575848968e-08
6	20828	4.81	1.1845813219225e-08
6	21384	4.91	1.2119549808176e-08
6	21949	5.01	1.2126655235534e-08
6	22506	5.11	0.0068264407582674
6	23063	5.21	0.074594825204244
6	23620	5.31	0.19005133580965
6	24177	5.41	0.34050271604578
6	24734	5.51	0.51301637992296
6	25291	5.61	0.69025457770344
6	25848	5.71	0.83572671948744
6	26405	5.81	0.95506454367928
6	26962	5.91	1.0529631248657
6	27527	6.01	1.1332740595019
6	28084	6.11	1.1991569981921
6	28641	6.21	1.2532039549377
6	29198	6.31	1.2975412840174
6	29755	6.41	1.333913336549
6	30312	6.51	1.3635927235564
6	30869	6.61	1.3702053601566
6	31426	6.71	1.3272611912161
6	31983	6.81	1.2373810907324
6	32540	6.91	1.10404337413
6	33105	7.01	0.93147091874766
6	33662	7.11	0.72451590435048
6	34219	7.21	0.4885431822391
6	34776	7.31	0.22931329511646
6	35333	7.41	-0.044839399439311
6	35890	7.51	-0.30626147528494
6	36447	7.61	-0.52071863075458
6	37004	7.71	-0.69664819363986
6	37561	7.81	-0.84097171145086
6	38118	7.91	-0.95936726391912
6	38683	8.01	-1.0564928540992
6	39240	8.11	-1.1361696668779
6	39797	8.21	-1.2015324047802
6	40354	8.31	-1.2551526156937
6	40911	8.41	-1.2991398645553
6	41468	8.51	-1.3352247293753
6	42025	8.61	-1.3648268868815
6	42582	8.71	-1.3891109664646
6	43139	8.81	-1.4090323698644
6	43696	8.91	-1.4253748592747
6	44261	9.01	-1.4387813926779
6	44818	9.11	-1.4497794195627
6	45375	9.21	-1.4588016322197
6	45932	9.31	-1.4662029890339
6	46489	9.41	-1.472274679513
6	47046	9.51	-1.4696249147034
6	47603	9.61	-1.3967850639437
6	48160	9.71	-1.2587757641633
6	48717	9.81	-1.0660952218261
6	49274	9.91	-0.82923335021992
6	49839	10.01	-0.55852907837295
6	50396	10.11	-0.26404116072971
6	50953	10.21	0.039432698699926
6	51510	10.31	0.30182609752512
6	52067	10.41	0.51708007614977
6	52624	10.51	0.69366331155596
6	53181	10.61	0.83852306850822
6	53738	10.71	0.95735852384404
6	54295	10.81	1.0548449875937
6	54852	10.91	1.1348178423914
6	55417	11.01	1.2004234378608
6	55974	11.11	1.2542428765666
6	56531	11.21	1.2983935616091
6	57088	11.31	1.3346125010223
6	57645	11.41	1.364324646393
6	58202	11.51	1.3886989543336
6	58759	11.61	1.4086943764131
6	59316	11.71	1.4250975869215
6	59873	11.81	1.4385539327746
6	60430	11.91	1.4345627372796
6	60995	12.01	1.362344918871
6	61552	12.11	1.2299875654412
6	62109	12.21	1.0461448397713
6	62666	12.31	0.81967864248274
6	63223	12.41	0.55952045903922
6	63780	12.51	0.27454262948492
6	64337	12.61	-0.022341644884349
6	64894	12.71	-0.2878054805846
6	65451	12.81	-0.50557828687943
6	66008	12.91	-0.68422783828268
6	66573	13.01	-0.83078269404986
6	67130	13.11	-0.95100872081701
6	67687	13.21	-1.0496359374757
6	68244	13.31	-1.1305446069832
6	68801	13.41	-1.1969178964591
6	69358	13.51	-1.2513671116379
6	69915	13.61	-1.2960344327389
6	70472	13.71	-1.3326771936644
6	71029	13.81	-1.3627370202924
6	71586	13.91	-1.3873965479609
6	72151	14.01	-1.4076259495598
6	72708	14.11	-1.4242211047687
6	73265	14.21	-1.4378349121303
6	73822	14.31	-1.4490029758544
6	74379	14.41	-1.454259395185
6	74936	14.51	-1.4067454390036
6	75493	14.61	-1.2938574955303
6	76050	14.71	-1.124840905225
6	76607	14.81	-0.90912582142568
6	77164	14.91	-0.65618298375991
6	77729	15.01	-0.37539052553566
6	78286	15.11	-0.078063005087259
6	78843	15.21	0.20543869668082
6	79400	15.31	0.43800883573812
6	79957	15.41	0.62879735391554
6	80514	15.51	0.7853103904381
6	81071	15.61	0.91370559385755
6	81628	15.71	1.0190343806947
6	82185	15.81	1.1054406719046
6	82742	15.91	1.1763239259972
6	83307	16.01	1.2344728829815
6	83864	16.11	1.2821752809831
6	84421	16.21	1.3213078620836
6	84978	16.31	1.353410208459
6	85535	16.41	1.3797453137304
6	86092	16.51	1.4013492725669
6	86649	16.61	1.4190720434685
6	87206	16.71	1.433610888447
6	87763	16.81	1.4455378052071
6	88320	16.91	1.4502949065323
6	88885	17.01	1.3935559567521
6	89442	17.11	1.2733368701442
6	89999	17.21	1.0986742440538
6	90556	17.31	0.87879676591474
6	91113	17.41	0.62298329276036
6	91670	17.51	0.34043137853494
6	92227	17.61	0.043031849081565
6	92784	17.71	-0.23417644595263
6	93341	17.81	-0.4615837994951
6	93898	17.91	-0.648137035353
6	94463	18.01	-0.801175665225
6	95020	18.11	-0.92672064505575
6	95577	18.21	-1.0297112558181
6	96134	18.31	-1.1141994282598
6	96691	18.41	-1.1835091568821
6	97248	18.51	-1.2403672749222
6	97805	18.61	-1.2870107353907
6	98362	18.71	-1.325274618886
6	98919	18.81	-1.3566643306579
6	99476	18.91	-1.3824148273438
6	100041	19.01	-1.4035392035211
6	100598	19.11	-1.420868549604
6	101155	19.21	-1.4350846492013
6	101712	19.31	-1.4467468023362
6	102269	19.41	-1.451720194177
6	102826	19.51	-1.3984004323888
6	103383	19.61	-1.2808993810095
6	103940	19.71	-1.1083308503775
6	104497	19.81	-0.88999806036849
6	105054	19.91	-0.63525086466907
6	105619	20.01	-0.35335363991358
6	106176	20.11	-0.055983891307321
6	106733	20.21	0.22355126013291
6	107290	20.31	0.4528674463721
6	107847	20.41	0.6409865898874
6	108404	20.51	0.79530980944416
6	108961	20.61	0.92190860023873
6	109518	20.71	1.0257637030335
6	110075	20.81	1.1109610600444
6	110632	20.91	1.1808525670222
6	111197	21.01	1.2381879459472
6	111754	21.11	1.2852229265711
6	112311	21.21	1.3238079929604
6	112868	21.31	1.3554611865732
6	113425	21.41	1.3814278301394
6	113982	21.51	1.4027295220425
6	114539	21.61	1.4202043287794
6	115096	21.71	1.4345397567766
6	115653	21.81	1.4462998007621
6	116210	21.91	1.4512038299459
6	116775	22.01	1.3966149622043
6	117332	22.11	1.2781048258539
6	117889	22.21	1.1047586168255
6	118446	22.31	0.88585193073953
6	119003	22.41	0.63070830476128
6	119560	22.51	0.34856734381012
6	120117	22.61	0.0511856543703
6	120674	22.71	-0.22748748564663
6	121231	22.81	-0.45609652228009
6	121788	22.91	-0.6436355568189
6	122353	23.01	-0.79748288496297
6	122910	23.11	-0.92369127904615
6	123467	23.21	-1.0272261205623
6	124024	23.31	-1.1121607517778
6	124581	23.41	-1.1818367320961
6	125138	23.51	-1.2389953040925
6	125695	23.61	-1.2858852414526
6	126252	23.71	-1.3243513218477
6	126809	23.81	-1.3559069055024
6	127366	23.91	-1.3817934749051
6	127931	24.01	-1.4030294781042
6	128488	24.11	-1.4204503972245
6	129045	24.21	-1.4347416186069
6	129602	24.31	-1.4464653977715
6	130159	24.41	-1.4513952146874
6	130716	24.51	-1.3972773206753
6	131273	24.61	-1.2791416668554
6	131830	24.71	-1.1060840673016
6	132387	24.81	-0.88739036841616
6	132944	24.91	-0.63239387292562
6	133509	25.01	-0.35034337810913
6	134066	25.11	-0.052966136909482
6	134623	25.21	0.22602686982296
6	135180	25.31	0.45489830857282
6	135737	25.41	0.64265260424126
6	136294	25.51	0.79667652148707
6	136851	25.61	0.92302978013983
6	137408	25.71	1.026683461059
6	137965	25.81	1.1117155819768
6	138522	25.91	1.1814715378065
6	139087	26.01	1.2386957175778
6	139644	26.11	1.2856394761648
6	140201	26.21	1.3241497087115
6	140758	26.31	1.3557415125092
6	141315	26.41	1.3816577950445
6	141872	26.51	1.4029181733612
6	142429	26.61	1.4203590885678
6	142986	26.71	1.4346667137062
6	143543	26.81	1.4464039496636
6	144100	26.91	1.4513241957731
6	144665	27.01	1.3970315218257
6	145222	27.11	1.2787568961965
6	145779	27.21	1.105592192547
6	146336	27.31	0.88681945319422
6	146893	27.41	0.63176835684544
6	147450	27.51	0.34968428947462
6	148007	27.61	0.052305397195518
6	148564	27.71	-0.22656890652382
6	149121	27.81	-0.45534296745871
6	149678	27.91	-0.64301737940227
6	150243	28.01	-0.79697576416979
6	150800	28.11	-0.92327526336593
6	151357	28.21	-1.0268848428064
6	151914	28.31	-1.1118807851512
6	152471	28.41	-1.1816070619497
6	153028	28.51	-1.2388068945784
6	153585	28.61	-1.2857306800282
6	154142	28.71	-1.3242245276457
6	154699	28.81	-1.3558028900942
6	155256	28.91	-1.3817081460418
6	155821	29.01	-1.4029594787162
6	156378	29.11	-1.420392973346
6	156935	29.21	-1.4346945110265
6	157492	29.31	-1.446426753148
6	158049	29.41	-1.451350551031
6	158606	29.51	-1.3971227384756
6	159163	29.61	-1.2788996857301
6	159720	29.71	-1.1057747287552
6	160277	29.81	-0.8870313215759
6	160834	29.91	-0.6320004877848
6	161399	30.01	-0.34992887930123
6	161956	30.11	-0.052550599748891
6	162513	30.21	0.22636775502605
6	163070	30.31	0.45517795316936
6	163627	30.41	0.64288201021068
6	164184	30.51	0.79686471428388
6	164741	30.61	0.92318416378063
6	165298	30.71	1.0268101094166
6	165855	30.81	1.1118194777421
6	166412	30.91	1.1815567685211
6	166977	31.01	1.2387656364497
6	167534	31.11	1.2856968339927
6	168091	31.21	1.3241967621083
6	168648	31.31	1.3557801126831
6	169205	31.41	1.3816894606315
6	169762	31.51	1.4029441501719
6	170319	31.61	1.4203803986005
6	170876	31.71	1.4346841953552
6	171433	31.81	1.4464182907044
6	171990	31.91	1.4513407705126
6	172555	32.01	1.397088887688
6	173112	32.11	1.278846696081
6	173669	32.21	1.1057069889883
6	174226	32.31	0.88695269654568
6	174783	32.41	0.63191434325471
6	175340	32.51	0.34983811123848
6	175897	32.61	0.052459604300914
6	176454	32.71	-0.22644240298693
6	177011	32.81	-0.4552391904971
6	177568	32.91	-0.64293224614804
6	178133	33.01	-0.79690592524955
6	178690	33.11	-0.92321797112618
6	179247	33.21	-1.0268378432148
6	179804	33.31	-1.111842229116
6	180361	33.41	-1.1815754325719
6	180918	33.51	-1.2387809474721
6	181475	33.61	-1.2857093943635
6	182032	33.71	-1.3242070659869
6	182589	33.81	-1.3557885654523
6	183146	33.91	-1.3816963948463
6	183711	34.01	-1.4029498386432
6	184268	34.11	-1.4203850651285
6	184825	34.21	-1.4346880235333
6	185382	34.31	-1.446421431144
6	185939	34.41	-1.451344400094
6	186496	34.51	-1.397101449823
6	187053	34.61	-1.2788663607086
6	187610	34.71	-1.1057321274317
6	188167	34.81	-0.88698187454508
6	188724	34.91	-0.63194631176433
6	189289	35.01	-0.34987179555621
6	189846	35.11	-0.052493373002349
6	190403	35.21	0.22641470089031
6	190960	35.31	0.4552164651292
6	191517	35.41	0.64291360343098
6	192074	35.51	0.79689063172861
6	192631	35.61	0.92320542511199
6	193188	35.71	1.026827551113
6	193745	35.81	1.1118337860077
6	194302	35.91	1.1815685062823
6	194867	36.01	1.2387752655021
6	195424	36.11	1.2857047331693
6	195981	36.21	1.3242032421841
6	196538	36.31	1.355785428602
6	197095	36.41	1.3816938215363
6	197652	36.51	1.4029477276326
6	198209	36.61	1.4203833333644
6	198766	36.71	1.4346866028836
6	199323	36.81	1.4464202657166
6	199880	36.91	1.4513430531444
6	200445	37.01	1.3970967879747
6	201002	37.11	1.2788590631029
6	201559	37.21	1.1057227984756
6	202116	37.31	0.88697104649729
6	202673	37.41	0.63193444814935
6	203230	37.51	0.34985929519937
6	203787	37.61	0.052480841330471
6	204344	37.71	-0.22642498122583
6	204901	37.81	-0.45522489858492
6	205458	37.91	-0.64292052180228
6	206023	38.01	-0.79689630720274
6	206580	38.11	-0.92321008097791
6	207137	38.21	-1.0268313705451
6	207694	38.31	-1.1118369192724
6	208251	38.41	-1.1815710766507
6	208808	38.51	-1.2387773740997
6	209365	38.61	-1.2857064629539
6	209922	38.71	-1.3242046612101
6	210479	38.81	-1.3557865926977
6	211036	38.91	-1.3816947765005
6	211601	39.01	-1.4029485110358
6	212158	39.11	-1.4203839760278
6	212715	39.21	-1.4346871300917
6	213272	39.31	-1.4464206982106
6	213829	39.41	-1.451343553002
6	214386	39.51	-1.3970985180013
6	214943	39.61	-1.2788617712671
6	215500	39.71	-1.1057262604803
6	216057	39.81	-0.88697506481985
6	216614	39.91	-0.63193885077393
6	217179	40.01	-0.34986393412062
6	217736	40.11	-0.052485491872822
6	218293	40.21	0.22642116616147
6	218850	40.31	0.45522176890351
6	219407	40.41	0.6429179543737
6	219964	40.51	0.79689420101712
6	220521	40.61	0.9232083531721
6	221078	40.71	1.0268299531427
6	221635	40.81	1.1118357565088
6	222192	40.91	1.1815701227798
5	232	1.11	36.55
5	788	1.21	36.55
5	1344	1.31	36.55
5	1900	1.41	36.55
5	2456	1.51	36.55
5	3012	1.61	36.55
5	3568	1.71	36.55
5	4124	1.81	36.55
5	4680	1.91	36.55
5	5244	2.01	36.55
5	5800	2.11	36.55
5	6356	2.21	36.55
5	6912	2.31	36.55
5	7468	2.41	36.55
5	8024	2.51	36.55
5	8580	2.61	36.55
5	9136	2.71	36.55
5	9692	2.81	36.55
5	10248	2.91	36.55
5	10812	3.01	36.55
5	11368	3.11	36.55
5	11924	3.21	36.55
5	12480	3.31	36.55
5	13036	3.41	36.55
5	13592	3.51	36.55
5	14148	3.61	36.55
5	14704	3.71	36.55
5	15260	3.81	36.55
5	15816	3.91	36.55
5	16380	4.01	36.55
5	16936	4.11	36.55
5	17492	4.21	36.55
5	18048	4.31	36.55
5	18604	4.41	36.55
5	19160	4.51	36.55
5	19716	4.61	36.55
5	20272	4.71	36.55
5	20828	4.81	36.55
5	21384	4.91	36.55
5	21949	5.01	36.55
5	22506	5.11	36.55
5	23063	5.21	36.55
5	23620	5.31	36.55
5	24177	5.41	36.55
5	24734	5.51	36.55
5	25291	5.61	36.55
5	25848	5.71	36.55
5	26405	5.81	36.55
5	26962	5.91	36.55
5	27527	6.01	36.55
5	28084	6.11	36.55
5	28641	6.21	36.55
5	29198	6.31	36.55
5	29755	6.41	36.55
5	30312	6.51	36.55
5	30869	6.61	36.55
5	31426	6.71	36.55
5	31983	6.81	36.55
5	32540	6.91	36.55
5	33105	7.01	36.55
5	33662	7.11	36.55
5	34219	7.21	36.55
5	34776	7.31	36.55
5	35333	7.41	36.55
5	35890	7.51	36.55
5	36447	7.61	36.55
5	37004	7.71	36.55
5	37561	7.81	36.55
5	38118	7.91	36.55
5	38683	8.01	36.55
5	39240	8.11	36.55
5	39797	8.21	36.55
5	40354	8.31	36.55
5	40911	8.41	36.55
5	41468	8.51	36.55
5	42025	8.61	36.55
5	42582	8.71	36.55
5	43139	8.81	36.55
5	43696	8.91	36.55
5	44261	9.01	36.55
5	44818	9.11	36.55
5	45375	9.21	36.55
5	45932	9.31	36.55
5	46489	9.41	36.55
5	47046	9.51	36.55
5	47603	9.61	36.55
5	48160	9.71	36.55
5	48717	9.81	36.55
5	49274	9.91	36.55
5	49839	10.01	36.55
5	50396	10.11	36.55
5	50953	10.21	36.55
5	51510	10.31	36.55
5	52067	10.41	36.55
5	52624	10.51	36.55
5	53181	10.61	36.55
5	53738	10.71	36.55
5	54295	10.81	36.55
5	54852	10.91	36.55
5	55417	11.01	36.55
5	55974	11.11	36.55
5	56531	11.21	36.55
5	57088	11.31	36.55
5	57645	11.41	36.55
5	58202	11.51	36.55
5	58759	11.61	36.55
5	59316	11.71	36.55
5	59873	11.81	36.55
5	60430	11.91	36.55
5	60995	12.01	36.55
5	61552	12.11	36.55
5	62109	12.21	36.55
5	62666	12.31	36.55
5	63223	12.41	36.55
5	63780	12.51	36.55
5	64337	12.61	36.55
5	64894	12.71	36.55
5	65451	12.81	36.55
5	66008	12.91	36.55
5	66573	13.01	36.55
5	67130	13.11	36.55
5	67687	13.21	36.55
5	68244	13.31	36.55
5	68801	13.41	36.55
5	69358	13.51	36.55
5	69915	13.61	36.55
5	70472	13.71	36.55
5	71029	13.81	36.55
5	71586	13.91	36.55
5	72151	14.01	36.55
5	72708	14.11	36.55
5	73265	14.21	36.55
5	73822	14.31	36.55
5	74379	14.41	36.55
5	74936	14.51	36.55
5	75493	14.61	36.55
5	76050	14.71	36.55
5	76607	14.81	36.55
5	77164	14.91	36.55
5	77729	15.01	36.55
5	78286	15.11	36.55
5	78843	15.21	36.55
5	79400	15.31	36.55
5	79957	15.41	36.55
5	80514	15.51	36.55
5	81071	15.61	36.55
5	81628	15.71	36.55
5	82185	15.81	36.55
5	82742	15.91	36.55
5	83307	16.01	36.55
5	83864	16.11	36.55
5	84421	16.21	36.55
5	84978	16.31	36.55
5	85535	16.41	36.55
5	86092	16.51	36.55
5	86649	16.61	36.55
5	87206	16.71	36.55
5	87763	16.81	36.55
5	88320	16.91	36.55
5	88885	17.01	36.55
5	89442	17.11	36.55
5	89999	17.21	36.55
5	90556	17.31	36.55
5	91113	17.41	36.55
5	91670	17.51	36.55
5	92227	17.61	36.55
5	92784	17.71	36.55
5	93341	17.81	36.55
5	93898	17.91	36.55
5	94463	18.01	36.55
5	95020	18.11	36.55
5	95577	18.21	36.55
5	96134	18.31	36.55
5	96691	18.41	36.55
5	97248	18.51	36.55
5	97805	18.61	36.55
5	98362	18.71	36.55
5	98919	18.81	36.55
5	99476	18.91	36.55
5	100041	19.01	36.55
5	100598	19.11	36.55
5	101155	19.21	36.55
5	101712	19.31	36.55
5	102269	19.41	36.55
5	102826	19.51	36.55
5	103383	19.61	36.55
5	103940	19.71	36.55
5	104497	19.81	36.55
5	105054	19.91	36.55
5	105619	20.01	36.55
5	106176	20.11	36.55
5	106733	20.21	36.55
5	107290	20.31	36.55
5	107847	20.41	36.55
5	108404	20.51	36.55
5	108961	20.61	36.55
5	109518	20.71	36.55
5	110075	20.81	36.55
5	110632	20.91	36.55
5	111197	21.01	36.55
5	111754	21.11	36.55
5	112311	21.21	36.55
5	112868	21.31	36.55
5	113425	21.41	36.55
5	113982	21.51	36.55
5	114539	21.61	36.55
5	115096	21.71	36.55
5	115653	21.81	36.55
5	116210	21.91	36.55
5	116775	22.01	36.55
5	117332	22.11	36.55
5	117889	22.21	36.55
5	118446	22.31	36.55
5	119003	22.41	36.55
5	119560	22.51	36.55
5	120117	22.61	36.55
5	120674	22.71	36.55
5	121231	22.81	36.55
5	121788	22.91	36.55
5	122353	23.01	36.55
5	122910	23.11	36.55
5	123467	23.21	36.55
5	124024	23.31	36.55
5	124581	23.41	36.55
5	125138	23.51	36.55
5	125695	23.61	36.55
5	126252	23.71	36.55
5	126809	23.81	36.55
5	127366	23.91	36.55
5	127931	24.01	36.55
5	128488	24.11	36.55
5	129045	24.21	36.55
5	129602	24.31	36.55
5	130159	24.41	36.55
5	130716	24.51	36.55
5	131273	24.61	36.55
5	131830	24.71	36.55
5	132387	24.81	36.55
5	132944	24.91	36.55
5	133509	25.01	36.55
5	134066	25.11	36.55
5	134623	25.21	36.55
5	135180	25.31	36.55
5	135737	25.41	36.55
5	136294	25.51	36.55
5	136851	25.61	36.55
5	137408	25.71	36.55
5	137965	25.81	36.55
5	138522	25.91	36.55
5	139087	26.01	36.55
5	139644	26.11	36.55
5	140201	26.21	36.55
5	140758	26.31	36.55
5	141315	26.41	36.55
5	141872	26.51	36.55
5	142429	26.61	36.55
5	142986	26.71	36.55
5	143543	26.81	36.55
5	144100	26.91	36.55
5	144665	27.01	36.55
5	145222	27.11	36.55
5	145779	27.21	36.55
5	146336	27.31	36.55
5	146893	27.41	36.55
5	147450	27.51	36.55
5	148007	27.61	36.55
5	148564	27.71	36.55
5	149121	27.81	36.55
5	149678	27.91	36.55
5	150243	28.01	36.55
5	150800	28.11	36.55
5	151357	28.21	36.55
5	151914	28.31	36.55
5	152471	28.41	36.55
5	153028	28.51	36.55
5	153585	28.61	36.55
5	154142	28.71	36.55
5	154699	28.81	36.55
5	155256	28.91	36.55
5	155821	29.01	36.55
5	156378	29.11	36.55
5	156935	29.21	36.55
5	157492	29.31	36.55
5	158049	29.41	36.55
5	158606	29.51	36.55
5	159163	29.61	36.55
5	159720	29.71	36.55
5	160277	29.81	36.55
5	160834	29.91	36.55
5	161399	30.01	36.55
5	161956	30.11	36.55
5	162513	30.21	36.55
5	163070	30.31	36.55
5	163627	30.41	36.55
5	164184	30.51	36.55
5	164741	30.61	36.55
5	165298	30.71	36.55
5	165855	30.81	36.55
5	166412	30.91	36.55
5	166977	31.01	36.55
5	167534	31.11	36.55
5	168091	31.21	36.55
5	168648	31.31	36.55
5	169205	31.41	36.55
5	169762	31.51	36.55
5	170319	31.61	36.55
5	170876	31.71	36.55
5	171433	31.81	36.55
5	171990	31.91	36.55
5	172555	32.01	36.55
5	173112	32.11	36.55
5	173669	32.21	36.55
5	174226	32.31	36.55
5	174783	32.41	36.55
5	175340	32.51	36.55
5	175897	32.61	36.55
5	176454	32.71	36.55
5	177011	32.81	36.55
5	177568	32.91	36.55
5	178133	33.01	36.55
5	178690	33.11	36.55
5	179247	33.21	36.55
5	179804	33.31	36.55
5	180361	33.41	36.55
5	180918	33.51	36.55
5	181475	33.61	36.55
5	182032	33.71	36.55
5	182589	33.81	36.55
5	183146	33.91	36.55
5	183711	34.01	36.55
5	184268	34.11	36.55
5	184825	34.21	36.55
5	185382	34.31	36.55
5	185939	34.41	36.55
5	186496	34.51	36.55
5	187053	34.61	36.55
5	187610	34.71	36.55
5	188167	34.81	36.55
5	188724	34.91	36.55
5	189289	35.01	36.55
5	189846	35.11	36.55
5	190403	35.21	36.55
5	190960	35.31	36.55
5	191517	35.41	36.55
5	192074	35.51	36.55
5	192631	35.61	36.55
5	193188	35.71	36.55
5	193745	35.81	36.55
5	194302	35.91	36.55
5	194867	36.01	36.55
5	195424	36.11	36.55
5	195981	36.21	36.55
5	196538	36.31	36.55
5	197095	36.41	36.55
5	197652	36.51	36.55
5	198209	36.61	36.55
5	198766	36.71	36.55
5	199323	36.81	36.55
5	199880	36.91	36.55
5	200445	37.01	36.55
5	201002	37.11	36.55
5	201559	37.21	36.55
5	202116	37.31	36.55
5	202673	37.41	36.55
5	203230	37.51	36.55
5	203787	37.61	36.55
5	204344	37.71	36.55
5	204901	37.81	36.55
5	205458	37.91	36.55
5	206023	38.01	36.55
5	206580	38.11	36.55
5	207137	38.21	36.55
5	207694	38.31	36.55
5	208251	38.41	36.55
5	208808	38.51	36.55
5	209365	38.61	36.55
5	209922	38.71	36.55
5	210479	38.81	36.55
5	211036	38.91	36.55
5	211601	39.01	36.55
5	212158	39.11	36.55
5	212715	39.21	36.55
5	213272	39.31	36.55
5	213829	39.41	36.55
5	214386	39.51	36.55
5	214943	39.61	36.55
5	215500	39.71	36.55
5	216057	39.81	36.55
5	216614	39.91	36.55
5	217179	40.01	36.55
5	217736	40.11	36.55
5	218293	40.21	36.55
5	218850	40.31	36.55
5	219407	40.41	36.55
5	219964	40.51	36.55
5	220521	40.61	36.55
5	221078	40.71	36.55
5	221635	40.81	36.55
5	222192	40.91	36.55
4	232	1.11	152.34595832811
4	788	1.21	153.73484725851
4	1344	1.31	155.12373618754
4	1900	1.41	156.51262511475
4	2456	1.51	157.90151403976
4	3012	1.61	159.29040296232
4	3568	1.71	160.67929188227
4	4124	1.81	162.06818079953
4	4680	1.91	163.45706971406
4	5244	2.01	164.8459586259
4	5800	2.11	166.23484753512
4	6356	2.21	167.62373644182
4	6912	2.31	169.01262534614
4	7468	2.41	170.40151424823
4	8024	2.51	171.79040314825
4	8580	2.61	173.17929204638
4	9136	2.71	174.56818094278
4	9692	2.81	175.95706983764
4	10248	2.91	177.34595873113
4	10812	3.01	178.7348476234
4	11368	3.11	180.12373651462
4	11924	3.21	181.51262540493
4	12480	3.31	182.90151429447
4	13036	3.41	184.29040318337
4	13592	3.51	185.67929207174
4	14148	3.61	187.06818095969
4	14704	3.71	188.45706984731
4	15260	3.81	189.84595873468
4	15816	3.91	191.23484762188
4	16380	4.01	192.62373650896
4	16936	4.11	194.01262539597
4	17492	4.21	195.40151428298
4	18048	4.31	196.79040317
4	18604	4.41	198.17929205707
4	19160	4.51	199.56818094421
4	19716	4.61	200.95706983145
4	20272	4.71	202.34595871879
4	20828	4.81	203.73484760625
4	21384	4.91	205.12373649382
4	21949	5.01	206.51262538152
4	22506	5.11	207.90151563462
4	23063	5.21	209.29063238955
4	23620	5.31	210.68074923797
4	24177	5.41	212.07309080753
4	24734	5.51	213.46920708195
4	25291	5.61	214.87083292363
4	25848	5.71	216.27965381707
4	26405	5.81	217.69707180271
4	26962	5.91	219.12423717381
4	27527	6.01	220.5620935715
4	28084	6.11	222.01141511019
4	28641	6.21	223.47283683331
4	29198	6.31	224.94687969764
4	29755	6.41	226.43397106922
4	30312	6.51	227.93446150536
4	30869	6.61	229.44860875598
4	31426	6.71	230.97636638814
4	31983	6.81	232.51720788528
4	32540	6.91	234.07014447109
4	33105	7.01	235.63376143275
4	33662	7.11	237.20626165576
4	34219	7.21	238.78551521418
4	34776	7.31	240.36911384866
4	35333	7.41	241.95442962223
4	35890	7.51	243.53874960766
4	36447	7.61	245.11957599857
4	37004	7.71	246.69484164967
4	37561	7.81	248.26285078182
4	38118	7.91	249.82221226547
4	38683	8.01	251.37178488988
4	39240	8.11	252.91063246476
4	39797	8.21	254.43798698798
4	40354	8.31	255.95321843032
4	40911	8.41	257.45580994835
4	41468	8.51	258.94533755048
4	42025	8.61	260.4214534159
4	42582	8.71	261.88387221041
4	43139	8.81	263.33235986058
4	43696	8.91	264.76672434468
4	44261	9.01	266.18680813801
4	44818	9.11	267.59248201543
4	45375	9.21	268.98363996734
4	45932	9.31	270.36019502892
4	46489	9.41	271.72207585876
4	47046	9.51	273.06922619484
4	47603	9.61	274.40184133754
4	48160	9.71	275.72078260818
4	48717	9.81	277.02754176916
4	49274	9.91	278.32413593353
4	49839	10.01	279.61300294078
4	50396	10.11	280.89689850777
4	50953	10.21	282.17879539374
4	51510	10.31	283.46162181261
4	52067	10.41	284.74789907354
4	52624	10.51	286.03970200238
4	53181	10.61	287.33873267899
4	53738	10.71	288.64638740171
4	54295	10.81	289.9638116215
4	54852	10.91	291.29194500709
4	55417	11.01	292.63155841414
4	55974	11.11	293.98328421279
4	56531	11.21	295.34764116678
4	57088	11.31	296.7250548431
4	57645	11.41	298.11587435488
4	58202	11.51	299.52038609649
4	58759	11.61	300.93882501106
4	59316	11.71	302.3713838338
4	59873	11.81	303.8182206747
4	60430	11.91	305.27945043961
4	60995	12.01	306.75486809878
4	61552	12.11	308.24362833621
4	62109	12.21	309.74430205059
4	62666	12.31	311.25496335128
4	63223	12.41	312.77327834954
4	63780	12.51	314.29659438176
4	64337	12.61	315.82202923975
4	64894	12.71	317.34669417438
4	65451	12.81	318.86804341122
4	66008	12.91	320.3839778455
4	66573	13.01	321.89277548021
4	67130	13.11	323.39302367803
4	67687	13.21	324.88356358433
4	68244	13.31	326.36344453468
4	68801	13.41	327.83188665313
4	69358	13.51	329.28825016979
4	69915	13.61	330.7320102505
4	70472	13.71	332.16273634844
4	71029	13.81	333.5800752653
4	71586	13.91	334.9837372554
4	72151	14.01	336.37348462638
4	72708	14.11	337.74912238773
4	73265	14.21	339.1104905793
4	73822	14.31	340.45745797807
4	74379	14.41	341.78991771649
4	74936	14.51	343.10793633241
4	75493	14.61	344.41212913186
4	76050	14.71	345.70373984946
4	76607	14.81	346.98455430255
4	77164	14.91	348.25680597533
4	77729	15.01	349.5230814699
4	78286	15.11	350.78622670463
4	78843	15.21	352.04918455328
4	79400	15.31	353.31466416906
4	79957	15.41	354.58490728773
4	80514	15.51	355.86175291339
4	81071	15.61	357.14670966994
4	81628	15.71	358.44101515443
4	82185	15.81	359.74568462749
4	82742	15.91	361.06155095646
4	83307	16.01	362.38929738263
4	83864	16.11	363.72948440185
4	84421	16.21	365.08257181594
4	84978	16.31	366.44893682251
4	85535	16.41	367.82888885502
4	86092	16.51	369.22268175665
4	86649	16.61	370.63052376723
4	87206	16.71	372.05258571597
4	87763	16.81	373.48900774229
4	88320	16.91	374.93990379488
4	88885	17.01	376.40517736974
4	89442	17.11	377.88413009663
4	89999	17.21	379.37544831429
4	90556	17.31	380.87729272589
4	91113	17.41	382.38739081939
4	91670	17.51	383.90312952021
4	92227	17.61	385.42164736095
4	92784	17.71	386.94001869651
4	93341	17.81	388.45559126274
4	93898	17.91	389.96617308781
4	94463	18.01	391.46996599134
4	95020	18.11	392.96549483913
4	95577	18.21	394.45154950734
4	96134	18.31	395.92713727295
4	96691	18.41	397.39144375728
4	97248	18.51	398.84380088621
4	97805	18.61	400.28366060625
4	98362	18.71	401.71057332264
4	98919	18.81	403.12417021111
4	99476	18.91	404.52414870727
4	100041	19.01	405.91026060295
4	100598	19.11	407.28230228101
4	101155	19.21	408.64010670446
4	101712	19.31	409.98353684479
4	102269	19.41	411.31248120963
4	102826	19.51	412.62702496489
4	103383	19.61	413.92783564755
4	103940	19.71	415.21620099178
4	104497	19.81	416.4939404573
4	105054	19.91	417.76331207076
4	105619	20.01	419.02691907139
4	106176	20.11	420.28761713745
4	106733	20.21	421.54833826091
4	107290	20.31	422.8117557379
4	107847	20.41	424.08007993941
4	108404	20.51	425.35512413956
4	108961	20.61	426.63837585466
4	109518	20.71	427.9310553662
4	110075	20.81	429.23416373002
4	110632	20.91	430.54852216059
4	111197	21.01	431.87480433978
4	111754	21.11	433.21356292139
4	112311	21.21	434.56525127401
4	112868	21.31	435.9302413178
4	113425	21.41	437.30883815683
4	113982	21.51	438.70129208271
4	114539	21.61	440.10780842171
4	115096	21.71	441.52855561293
4	115653	21.81	442.96367183506
4	116210	21.91	444.41326949412
4	116775	22.01	445.87725929789
4	117332	22.11	447.35496228666
4	117889	22.21	448.84508110019
4	118446	22.31	450.34578891143
4	119003	22.41	451.85482231142
4	119560	22.51	453.36957440359
4	120117	22.61	454.88718735346
4	120674	22.71	456.40473151371
4	121231	22.81	457.91954137928
4	121788	22.91	459.42941339536
4	122353	23.01	460.93253987952
4	122910	23.11	462.42743790251
4	123467	23.21	463.91289094589
4	124024	23.31	465.38790104079
4	124581	23.41	466.85164950516
4	125138	23.51	468.30346473456
4	125695	23.61	469.74279577946
4	126252	23.71	471.16919066931
4	126809	23.81	472.58227863086
4	127366	23.91	473.9817555009
4	127931	24.01	475.36737175967
4	128488	24.11	476.73892271403
4	129045	24.21	478.09624044434
4	129602	24.31	479.43918719799
4	130159	24.41	480.76765090742
4	130716	24.51	482.08171933321
4	131273	24.61	483.38206719599
4	131830	24.71	484.66998828364
4	132387	24.81	485.94730668908
4	132944	24.91	487.21628382372
4	133509	25.01	488.47952522676
4	134066	25.11	489.73988793234
4	134623	25.21	491.0003024577
4	135180	25.31	492.26343719889
4	135737	25.41	493.53149824004
4	136294	25.51	494.80629533847
4	136851	25.61	496.08931312554
4	137408	25.71	497.38176951607
4	137965	25.81	498.6846636244
4	138522	25.91	499.99881507228
4	139087	26.01	501.32489623503
4	139644	26.11	502.66345869459
4	140201	26.21	504.01495494027
4	140758	26.31	505.3797561709
4	141315	26.41	506.75816689883
4	141872	26.51	508.15043693022
4	142429	26.61	509.55677119315
4	142986	26.71	510.97733780001
4	143543	26.81	512.41227466153
4	144100	26.91	513.86169397084
4	144665	27.01	515.32550739898
4	145222	27.11	516.80303865216
4	145779	27.21	518.2929926168
4	146336	27.31	519.79354418534
4	146893	27.41	521.30243120505
4	147450	27.51	522.81704763302
4	148007	27.61	524.33453613808
4	148564	27.71	525.85196652583
4	149121	27.81	527.36667147307
4	149678	27.91	528.87644583431
4	150243	28.01	530.37948062221
4	150800	28.11	531.87429183707
4	151357	28.21	533.35966208227
4	151914	28.31	534.83459266856
4	152471	28.41	536.29826432291
4	153028	28.51	537.75000495609
4	153585	28.61	539.18926322082
4	154142	28.71	540.61558682032
4	154699	28.81	542.02860471368
4	155256	28.91	543.42801251814
4	155821	29.01	544.8135605338
4	156378	29.11	546.18504391978
4	156935	29.21	547.54229463522
4	157492	29.31	548.88517482806
4	158049	29.41	550.21357235178
4	158606	29.51	551.5275753244
4	159163	29.61	552.82785945591
4	159720	29.71	554.11571936792
4	160277	29.81	555.39297979146
4	160834	29.91	556.66190260415
4	161399	30.01	557.92509366196
4	161956	30.11	559.18541018584
4	162513	30.21	560.44578249
4	163070	30.31	561.70887829578
4	163627	30.41	562.97690309699
4	164184	30.51	564.25166616672
4	164741	30.61	565.53465173909
4	165298	30.71	566.827077403
4	165855	30.81	568.12994200548
4	166412	30.91	569.44406494895
4	166977	31.01	570.77011842883
4	167534	31.11	572.10865387947
4	168091	31.21	573.46012366909
4	168648	31.31	574.82489889722
4	169205	31.41	576.2032839947
4	169762	31.51	577.59552870087
4	170319	31.61	579.00183788897
4	170876	31.71	580.42237962641
4	171433	31.81	581.85729178701
4	171990	31.91	583.3066865346
4	172555	32.01	584.77047567287
4	173112	32.11	586.24798327518
4	173669	32.21	587.73791453736
4	174226	32.31	589.23844458863
4	174783	32.41	590.74731144929
4	175340	32.51	592.26190919399
4	175897	32.61	593.77938056088
4	176454	32.71	595.29679528022
4	177011	32.81	596.8114857784
4	177568	32.91	598.32124669089
4	178133	33.01	599.82426885063
4	178690	33.11	601.31906811051
4	179247	33.21	602.80442695297
4	179804	33.31	604.27934658955
4	180361	33.41	605.74300766582
4	180918	33.51	607.19473802579
4	181475	33.61	608.63398626742
4	182032	33.71	610.060300049
4	182589	33.81	611.47330829275
4	183146	33.91	612.87270658567
4	183711	34.01	614.25824520306
4	184268	34.11	615.6297192837
4	184825	34.21	616.98696077001
4	185382	34.31	618.32983179627
4	185939	34.41	619.65822020505
4	186496	34.51	620.97221416362
4	187053	34.61	622.27248951822
4	187610	34.71	623.56034100527
4	188167	34.81	624.83759344368
4	188724	34.91	626.10650877528
4	189289	35.01	627.36969289968
4	189846	35.11	628.63000306353
4	190403	35.21	629.89036955309
4	190960	35.31	631.15345999678
4	191517	35.41	632.42147980711
4	192074	35.51	633.6962381905
4	192631	35.61	634.97921932633
4	193188	35.71	636.27164075865
4	193745	35.81	637.57450129765
4	194302	35.91	638.88862031557
4	194867	36.01	640.21466998303
4	195424	36.11	641.55320171406
4	195981	36.21	642.90466786022
4	196538	36.31	644.26943950735
4	197095	36.41	645.64782107507
4	197652	36.51	647.04006229351
4	198209	36.61	648.44636802837
4	198766	36.71	649.86690634085
4	199323	36.81	651.3018150997
4	199880	36.91	652.75120646471
4	200445	37.01	654.21499225783
4	201002	37.11	655.692496603
4	201559	37.21	657.18242473865
4	202116	37.31	658.68295182662
4	202673	37.41	660.19181591103
4	203230	37.51	661.70641108271
4	203787	37.61	663.22388008937
4	204344	37.71	664.74129265089
4	204901	37.81	666.25598115918
4	205458	37.91	667.76574021954
4	206023	38.01	669.26876064017
4	206580	38.11	670.76355825364
4	207137	38.21	672.24891552574
4	207694	38.31	673.72383365435
4	208251	38.41	675.18749327383
4	208808	38.51	676.639222219
4	209365	38.61	678.07846908028
4	209922	38.71	679.50478150975
4	210479	38.81	680.91778842459
4	211036	38.91	682.3171854076
4	211601	39.01	683.70272273068
4	212158	39.11	685.07419552981
4	212715	39.21	686.43143574511
4	213272	39.31	687.77430550896
4	213829	39.41	689.10269266246
4	214386	39.51	690.41668537964
4	214943	39.61	691.7169595255
4	215500	39.71	693.00480985229
4	216057	39.81	694.28206119101
4	216614	39.91	695.55097549233
4	217179	40.01	696.81415866187
4	217736	40.11	698.07446794984
4	218293	40.21	699.33483363862
4	218850	40.31	700.59792334386
4	219407	40.41	701.86594246686
4	219964	40.51	703.14070020485
4	220521	40.61	704.4236807297
4	221078	40.71	705.71610157925
4	221635	40.81	707.01896155864
4	222192	40.91	708.33308003594
3	232	1.11	13.888889309806
3	788	1.21	13.888889299984
3	1344	1.31	13.888889284553
3	1900	1.41	13.888889264797
3	2456	1.51	13.888889241849
3	3012	1.61	13.888889216692
3	3568	1.71	13.888889190176
3	4124	1.81	13.888889163019
3	4680	1.91	13.888889135825
3	5244	2.01	13.888889109087
3	5800	2.11	13.888889083203
3	6356	2.21	13.888889058484
3	6912	2.31	13.888889035164
3	7468	2.41	13.888889013409
3	8024	2.51	13.88888899333
3	8580	2.61	13.888888974985
3	9136	2.71	13.888888958391
3	9692	2.81	13.888888943532
3	10248	2.91	13.888888930362
3	10812	3.01	13.888888918814
3	11368	3.11	13.888888908804
3	11924	3.21	13.888888900236
3	12480	3.31	13.888888893003
3	13036	3.41	13.888888886995
3	13592	3.51	13.888888882101
3	14148	3.61	13.888888878208
3	14704	3.71	13.888888875206
3	15260	3.81	13.888888872989
3	15816	3.91	13.888888871455
3	16380	4.01	13.888888870509
3	16936	4.11	13.888888870063
3	17492	4.21	13.888888870035
3	18048	4.31	13.88888887035
3	18604	4.41	13.888888870941
3	19160	4.51	13.888888871748
3	19716	4.61	13.888888872717
3	20272	4.71	13.888888873802
3	20828	4.81	13.888888874963
3	21384	4.91	13.888888876165
3	21949	5.01	13.888888877379
3	22506	5.11	13.88895714287
3	23063	5.21	13.8931707169
3	23620	5.31	13.906886981158
3	24177	5.41	13.934167403487
3	24734	5.51	13.977833057683
3	25291	5.61	14.039174898244
3	25848	5.71	14.116438827352
3	26405	5.81	14.206769915256
3	26962	5.91	14.307820624663
3	27527	6.01	14.417665157344
3	28084	6.11	14.534723687999
3	28641	6.21	14.657700209627
3	29198	6.31	14.785531545087
3	29755	6.41	14.917345518821
3	30312	6.51	15.052425059448
3	30869	6.61	15.189500093972
3	31426	6.71	15.324463010101
3	31983	6.81	15.452496243768
3	32540	6.91	15.569092845265
3	33105	7.01	15.670136008044
3	33662	7.11	15.751967163808
3	34219	7.21	15.811442461837
3	34776	7.31	15.845977552212
3	35333	7.41	15.853603639796
3	35890	7.51	15.834314677718
3	36447	7.61	15.791543255453
3	37004	7.71	15.729508036896
3	37561	7.81	15.651669795801
3	38118	7.91	15.560867572035
3	38683	8.01	15.459430367125
3	39240	8.11	15.349268773515
3	39797	8.21	15.231950142466
3	40354	8.31	15.108760247923
3	40911	8.41	14.980753872353
3	41468	8.51	14.848796304763
3	42025	8.61	14.713597383517
3	42582	8.71	14.575739423308
3	43139	8.81	14.435700125008
3	43696	8.91	14.293871369713
3	44261	9.01	14.150574636415
3	44818	9.11	14.006073649857
3	45375	9.21	13.860584756185
3	45932	9.31	13.714285434593
3	46489	9.41	13.567321279832
3	47046	9.51	13.419909418317
3	47603	9.61	13.276568052228
3	48160	9.71	13.144199549998
3	48717	9.81	13.028740637906
3	49274	9.91	12.935077207518
3	49839	10.01	12.867053163966
3	50396	10.11	12.827492798447
3	50953	10.21	12.818184012284
3	51510	10.31	12.836987312871
3	52067	10.41	12.879360323559
3	52624	10.51	12.941068705856
3	53181	10.61	13.01863882738
3	53738	10.71	13.109221099712
3	54295	10.81	13.210477867837
3	54852	10.91	13.320491440438
3	55417	11.01	13.437688642703
3	55974	11.11	13.56077892335
3	56531	11.21	13.688703580829
3	57088	11.31	13.820594111122
3	57645	11.41	13.955738038437
3	58202	11.51	14.093550884467
3	58759	11.61	14.233553173427
3	59316	11.71	14.375351568173
3	59873	11.81	14.518623395246
3	60430	11.91	14.66269730263
3	60995	12.01	14.802538408274
3	61552	12.11	14.931758497807
3	62109	12.21	15.044820373205
3	62666	12.31	15.137065146099
3	63223	12.41	15.204725281664
3	63780	12.51	15.244924342721
3	64337	12.61	15.255706566207
3	64894	12.71	15.238438484058
3	65451	12.81	15.197324887205
3	66008	12.91	15.136649662907
3	66573	13.01	15.05992709079
3	67130	13.11	14.970040104174
3	67687	13.21	14.869353712503
3	68244	13.31	14.759808047257
3	68801	13.41	14.642994691995
3	69358	13.51	14.520219299584
3	69915	13.61	14.392552960135
3	70472	13.71	14.260874340597
3	71029	13.81	14.125904253911
3	71586	13.91	13.988234017746
3	72151	14.01	13.848348718545
3	72708	14.11	13.706646296149
3	73265	14.21	13.56345319983
3	73822	14.31	13.419037231692
3	74379	14.41	13.273657135565
3	74936	14.51	13.130441982788
3	75493	14.61	12.995670307401
3	76050	14.71	12.875370078417
3	76607	14.81	12.774633040977
3	77164	14.91	12.697604313193
3	77729	15.01	12.647485799739
3	78286	15.11	12.626530819682
3	78843	15.21	12.634779968798
3	79400	15.31	12.66849489927
3	79957	15.41	12.723100640181
3	80514	15.51	12.79484412192
3	81071	15.61	12.88064652021
3	81628	15.71	12.977982126792
3	82185	15.81	13.084778981187
3	82742	15.91	13.199337354141
3	83307	16.01	13.320262875649
3	83864	16.11	13.446411676648
3	84421	16.21	13.576845386097
3	84978	16.31	13.71079421291
3	85535	16.41	13.847626660274
3	86092	16.51	13.986824680856
3	86649	16.61	14.127963295405
3	87206	16.71	14.270693872916
3	87763	16.81	14.414730414535
3	88320	16.91	14.559787728906
3	88885	17.01	14.702082559026
3	89442	17.11	14.835117319103
3	89999	17.21	14.95304189545
3	90556	17.31	15.050921902539
3	91113	17.41	15.124749945874
3	91670	17.51	15.171443265846
3	92227	17.61	15.188857753955
3	92784	17.71	15.177461901473
3	93341	17.81	15.141165578244
3	93898	17.91	15.084442196173
3	94463	18.01	15.010961511109
3	95020	18.11	14.923734001024
3	95577	18.21	14.825229306406
3	96134	18.31	14.717473392626
3	96691	18.41	14.602128256938
3	97248	18.51	14.480557315958
3	97805	18.61	14.353879046192
3	98362	18.71	14.223010987939
3	98919	18.81	14.088705843826
3	99476	18.91	13.951581092168
3	100041	19.01	13.812143280257
3	100598	19.11	13.670807953298
3	101155	19.21	13.527916003097
3	101712	19.31	13.383747079665
3	102269	19.41	13.23857652977
3	102826	19.51	13.095945007457
3	103383	19.61	12.962270845178
3	103940	19.71	12.843470007216
3	104497	19.81	12.744535147797
3	105054	19.91	12.669524665226
3	105619	20.01	12.621565448378
3	106176	20.11	12.602842059212
3	106733	20.21	12.613074483492
3	107290	20.31	12.648416390373
3	107847	20.41	12.704356818615
3	108404	20.51	12.777195208837
3	108961	20.61	12.863895813439
3	109518	20.71	12.961968262042
3	110075	20.81	13.069369583537
3	110632	20.91	13.184423830048
3	111197	21.01	13.305756140585
3	111754	21.11	13.432238650273
3	112311	21.21	13.562946117079
3	112868	21.31	13.697119520272
3	113425	21.41	13.834136198489
3	113982	21.51	13.973485352538
3	114539	21.61	14.114747949169
3	115096	21.71	14.25758023517
3	115653	21.81	14.401700213177
3	116210	21.91	14.546829114103
3	116775	22.01	14.689336934087
3	117332	22.11	14.822775023755
3	117889	22.21	14.941251840502
3	118446	22.31	15.039796341815
3	119003	22.41	15.114369048335
3	119560	22.51	15.161859441787
3	120117	22.61	15.180097968285
3	120674	22.71	15.169434538294
3	121231	22.81	15.13373905661
3	121788	22.91	15.07750857388
3	122353	23.01	15.004432237952
3	122910	23.11	14.917536434993
3	123467	23.21	14.819303855751
3	124024	23.31	14.711771171359
3	124581	23.41	14.596609161518
3	125138	23.51	14.475188447516
3	125695	23.61	14.348633416197
3	126252	23.71	14.217866456394
3	126809	23.81	14.083644248221
3	127366	23.91	13.946587532923
3	127931	24.01	13.807205534522
3	128488	24.11	13.665915994083
3	129045	24.21	13.523061604774
3	129602	24.31	13.378923494356
3	130159	24.41	13.233779163163
3	130716	24.51	13.091225460604
3	131273	24.61	12.957699786749
3	131830	24.71	12.839102746868
3	132387	24.81	12.74041340342
3	132944	24.91	12.665678256479
3	133509	25.01	12.618013899389
3	134066	25.11	12.599595455496
3	134623	25.21	12.61009895213
3	135180	25.31	12.645663232756
3	135737	25.41	12.701786084922
3	136294	25.51	12.774774126299
3	136851	25.61	12.861597496972
3	137408	25.71	12.959770656513
3	137965	25.81	13.067254596054
3	138522	25.91	13.182376618139
3	139087	26.01	13.303764528253
3	139644	26.11	13.43029264896
3	140201	26.21	13.561037532686
3	140758	26.31	13.695241630788
3	141315	26.41	13.83228348952
3	141872	26.51	13.971653300362
3	142429	26.61	14.112932842758
3	142986	26.71	14.255779030189
3	143543	26.81	14.39991041221
3	144100	26.91	14.545049017674
3	144665	27.01	14.687585693517
3	145222	27.11	14.821078865042
3	145779	27.21	14.939631290159
3	146336	27.31	15.03826688263
3	146893	27.41	15.112941747789
3	147450	27.51	15.160541546767
3	148007	27.61	15.17889322306
3	148564	27.71	15.168330374919
3	149121	27.81	15.132717405387
3	149678	27.91	15.076554611359
3	150243	28.01	15.003533803743
3	150800	28.11	14.91668355334
3	151357	28.21	14.818488343061
3	151914	28.31	14.710986314233
3	152471	28.41	14.595849452632
3	153028	28.51	14.474449368947
3	153585	28.61	14.347911261671
3	154142	28.71	14.21715818548
3	154699	28.81	14.082947366705
3	155256	28.91	13.945899994678
3	155821	29.01	13.806525661016
3	156378	29.11	13.665242408331
3	156935	29.21	13.522393177171
3	157492	29.31	13.378259298231
3	158049	29.41	13.23311856794
3	158606	29.51	13.090575573438
3	159163	29.61	12.957070340203
3	159720	29.71	12.838501358414
3	160277	29.81	12.739845818791
3	160834	29.91	12.665148582879
3	161399	30.01	12.617524826186
3	161956	30.11	12.59914837223
3	162513	30.21	12.609689194843
3	163070	30.31	12.645284095771
3	163627	30.41	12.701432067251
3	164184	30.51	12.774440715214
3	164741	30.61	12.861280990466
3	165298	30.71	12.959468017648
3	165855	30.81	13.066963333485
3	166412	30.91	13.182094688096
3	166977	31.01	13.303490254132
3	167534	31.11	13.43002465536
3	168091	31.21	13.560774691303
3	168648	31.31	13.694983016015
3	169205	31.41	13.832028342041
3	169762	31.51	13.971400997271
3	170319	31.61	14.112682873057
3	170876	31.71	14.255530974679
3	171433	31.81	14.399663927005
3	171990	31.91	14.544803868766
3	172555	32.01	14.687344518393
3	173112	32.11	14.82084527549
3	173669	32.21	14.939408113045
3	174226	32.31	15.038056250216
3	174783	32.41	15.112745184271
3	175340	32.51	15.16036005018
3	175897	32.61	15.178727309066
3	176454	32.71	15.16817831271
3	177011	32.81	15.132576706465
3	177568	32.91	15.07642323429
3	178133	33.01	15.003410073841
3	178690	33.11	14.91656609678
3	179247	33.21	14.818376032824
3	179804	33.31	14.710878225775
3	180361	33.41	14.595744827503
3	180918	33.51	14.474347584953
3	181475	33.61	14.347811808398
3	182032	33.71	14.21706064421
3	182589	33.81	14.082851393943
3	183146	33.91	13.94580530864
3	183711	34.01	13.806432030538
3	184268	34.11	13.665149643781
3	184825	34.21	13.522301122983
3	185382	34.31	13.378167826789
3	185939	34.41	13.233027592401
3	186496	34.51	13.090486072583
3	187053	34.61	12.956983654378
3	187610	34.71	12.838418536677
3	188167	34.81	12.739767652433
3	188724	34.91	12.665075637532
3	189289	35.01	12.617457472225
3	189846	35.11	12.59908680102
3	190403	35.21	12.609632764073
3	190960	35.31	12.645231881954
3	191517	35.41	12.701383312803
3	192074	35.51	12.774394798654
3	192631	35.61	12.861237401962
3	193188	35.71	12.959426338962
3	193745	35.81	13.066923221514
3	194302	35.91	13.182055861377
3	194867	36.01	13.303452481767
3	195424	36.11	13.429987747933
3	195981	36.21	13.560738493426
3	196538	36.31	13.694947400217
3	197095	36.41	13.83199320375
3	197652	36.51	13.971366250702
3	198209	36.61	14.112648447836
3	198766	36.71	14.255496813076
3	199323	36.81	14.39962998166
3	199880	36.91	14.544770107452
3	200445	37.01	14.68731130434
3	201002	37.11	14.820813106103
3	201559	37.21	14.939377377634
3	202116	37.31	15.038027242431
3	202673	37.41	15.11271811402
3	203230	37.51	15.160335054909
3	203787	37.61	15.178704459793
3	204344	37.71	15.168157371071
3	204901	37.81	15.13255732975
3	205458	37.91	15.076405141359
3	206023	38.01	15.003393034059
3	206580	38.11	14.916549920947
3	207137	38.21	14.81836056573
3	207694	38.31	14.710863340094
3	208251	38.41	14.595730418783
3	208808	38.51	14.474333567508
3	209365	38.61	14.347798111935
3	209922	38.71	14.217047211063
3	210479	38.81	14.082838176806
3	211036	38.91	13.945792268708
3	211601	39.01	13.806419135975
3	212158	39.11	13.665136868471
3	212715	39.21	13.522288445503
3	213272	39.31	13.378155229563
3	213829	39.41	13.23301506347
3	214386	39.51	13.090473746742
3	214943	39.61	12.956971716216
3	215500	39.71	12.838407130668
3	216057	39.81	12.739756887551
3	216614	39.91	12.665065591676
3	217179	40.01	12.617448196401
3	217736	40.11	12.599078321582
3	218293	40.21	12.609624992565
3	218850	40.31	12.645224691194
3	219407	40.41	12.701376598459
3	219964	40.51	12.774388475137
3	220521	40.61	12.86123139906
3	221078	40.71	12.959420599074
3	221635	40.81	13.066917697391
3	222192	40.91	13.182050514256
1	232	1.11	0
1	788	1.21	0
1	1344	1.31	0
1	1900	1.41	0
1	2456	1.51	0
1	3012	1.61	0
1	3568	1.71	0
1	4124	1.81	0
1	4680	1.91	0
1	5244	2.01	0
1	5800	2.11	0
1	6356	2.21	0
1	6912	2.31	0
1	7468	2.41	0
1	8024	2.51	0
1	8580	2.61	0
1	9136	2.71	0
1	9692	2.81	0
1	10248	2.91	0
1	10812	3.01	0
1	11368	3.11	0
1	11924	3.21	0
1	12480	3.31	0
1	13036	3.41	0
1	13592	3.51	0
1	14148	3.61	0
1	14704	3.71	0
1	15260	3.81	0
1	15816	3.91	0
1	16380	4.01	0
1	16936	4.11	0
1	17492	4.21	0
1	18048	4.31	0
1	18604	4.41	0
1	19160	4.51	0
1	19716	4.61	0
1	20272	4.71	0
1	20828	4.81	0
1	21384	4.91	0
1	21949	5.01	0
1	22506	5.11	0
1	23063	5.21	0
1	23620	5.31	0
1	24177	5.41	0
1	24734	5.51	0
1	25291	5.61	0
1	25848	5.71	0
1	26405	5.81	0
1	26962	5.91	0
1	27527	6.01	0
1	28084	6.11	0
1	28641	6.21	0
1	29198	6.31	0
1	29755	6.41	0
1	30312	6.51	0
1	30869	6.61	0
1	31426	6.71	0
1	31983	6.81	0
1	32540	6.91	0
1	33105	7.01	0
1	33662	7.11	0
1	34219	7.21	0
1	34776	7.31	0
1	35333	7.41	0
1	35890	7.51	0
1	36447	7.61	0
1	37004	7.71	0
1	37561	7.81	0
1	38118	7.91	0
1	38683	8.01	0
1	39240	8.11	0
1	39797	8.21	0
1	40354	8.31	0
1	40911	8.41	0
1	41468	8.51	0
1	42025	8.61	0
1	42582	8.71	0
1	43139	8.81	0
1	43696	8.91	0
1	44261	9.01	0
1	44818	9.11	0
1	45375	9.21	0
1	45932	9.31	0
1	46489	9.41	0
1	47046	9.51	0
1	47603	9.61	0
1	48160	9.71	0
1	48717	9.81	0
1	49274	9.91	0
1	49839	10.01	0
1	50396	10.11	0
1	50953	10.21	0
1	51510	10.31	0
1	52067	10.41	0
1	52624	10.51	0
1	53181	10.61	0
1	53738	10.71	0
1	54295	10.81	0
1	54852	10.91	0
1	55417	11.01	0
1	55974	11.11	0
1	56531	11.21	0
1	57088	11.31	0
1	57645	11.41	0
1	58202	11.51	0
1	58759	11.61	0
1	59316	11.71	0
1	59873	11.81	0
1	60430	11.91	0
1	60995	12.01	0
1	61552	12.11	0
1	62109	12.21	0
1	62666	12.31	0
1	63223	12.41	0
1	63780	12.51	0
1	64337	12.61	0
1	64894	12.71	0
1	65451	12.81	0
1	66008	12.91	0
1	66573	13.01	0
1	67130	13.11	0
1	67687	13.21	0
1	68244	13.31	0
1	68801	13.41	0
1	69358	13.51	0
1	69915	13.61	0
1	70472	13.71	0
1	71029	13.81	0
1	71586	13.91	0
1	72151	14.01	0
1	72708	14.11	0
1	73265	14.21	0
1	73822	14.31	0
1	74379	14.41	0
1	74936	14.51	0
1	75493	14.61	0
1	76050	14.71	0
1	76607	14.81	0
1	77164	14.91	0
1	77729	15.01	0
1	78286	15.11	0
1	78843	15.21	0
1	79400	15.31	0
1	79957	15.41	0
1	80514	15.51	0
1	81071	15.61	0
1	81628	15.71	0
1	82185	15.81	0
1	82742	15.91	0
1	83307	16.01	0
1	83864	16.11	0
1	84421	16.21	0
1	84978	16.31	0
1	85535	16.41	0
1	86092	16.51	0
1	86649	16.61	0
1	87206	16.71	0
1	87763	16.81	0
1	88320	16.91	0
1	88885	17.01	0
1	89442	17.11	0
1	89999	17.21	0
1	90556	17.31	0
1	91113	17.41	0
1	91670	17.51	0
1	92227	17.61	0
1	92784	17.71	0
1	93341	17.81	0
1	93898	17.91	0
1	94463	18.01	0
1	95020	18.11	0
1	95577	18.21	0
1	96134	18.31	0
1	96691	18.41	0
1	97248	18.51	0
1	97805	18.61	0
1	98362	18.71	0
1	98919	18.81	0
1	99476	18.91	0
1	100041	19.01	0
1	100598	19.11	0
1	101155	19.21	0
1	101712	19.31	0
1	102269	19.41	0
1	102826	19.51	0
1	103383	19.61	0
1	103940	19.71	0
1	104497	19.81	0
1	105054	19.91	0
1	105619	20.01	0
1	106176	20.11	0
1	106733	20.21	0
1	107290	20.31	0
1	107847	20.41	0
1	108404	20.51	0
1	108961	20.61	0
1	109518	20.71	0
1	110075	20.81	0
1	110632	20.91	0
1	111197	21.01	0
1	111754	21.11	0
1	112311	21.21	0
1	112868	21.31	0
1	113425	21.41	0
1	113982	21.51	0
1	114539	21.61	0
1	115096	21.71	0
1	115653	21.81	0
1	116210	21.91	0
1	116775	22.01	0
1	117332	22.11	0
1	117889	22.21	0
1	118446	22.31	0
1	119003	22.41	0
1	119560	22.51	0
1	120117	22.61	0
1	120674	22.71	0
1	121231	22.81	0
1	121788	22.91	0
1	122353	23.01	0
1	122910	23.11	0
1	123467	23.21	0
1	124024	23.31	0
1	124581	23.41	0
1	125138	23.51	0
1	125695	23.61	0
1	126252	23.71	0
1	126809	23.81	0
1	127366	23.91	0
1	127931	24.01	0
1	128488	24.11	0
1	129045	24.21	0
1	129602	24.31	0
1	130159	24.41	0
1	130716	24.51	0
1	131273	24.61	0
1	131830	24.71	0
1	132387	24.81	0
1	132944	24.91	0
1	133509	25.01	0
1	134066	25.11	0
1	134623	25.21	0
1	135180	25.31	0
1	135737	25.41	0
1	136294	25.51	0
1	136851	25.61	0
1	137408	25.71	0
1	137965	25.81	0
1	138522	25.91	0
1	139087	26.01	0
1	139644	26.11	0
1	140201	26.21	0
1	140758	26.31	0
1	141315	26.41	0
1	141872	26.51	0
1	142429	26.61	0
1	142986	26.71	0
1	143543	26.81	0
1	144100	26.91	0
1	144665	27.01	0
1	145222	27.11	0
1	145779	27.21	0
1	146336	27.31	0
1	146893	27.41	0
1	147450	27.51	0
1	148007	27.61	0
1	148564	27.71	0
1	149121	27.81	0
1	149678	27.91	0
1	150243	28.01	0
1	150800	28.11	0
1	151357	28.21	0
1	151914	28.31	0
1	152471	28.41	0
1	153028	28.51	0
1	153585	28.61	0
1	154142	28.71	0
1	154699	28.81	0
1	155256	28.91	0
1	155821	29.01	0
1	156378	29.11	0
1	156935	29.21	0
1	157492	29.31	0
1	158049	29.41	0
1	158606	29.51	0
1	159163	29.61	0
1	159720	29.71	0
1	160277	29.81	0
1	160834	29.91	0
1	161399	30.01	0
1	161956	30.11	0
1	162513	30.21	0
1	163070	30.31	0
1	163627	30.41	0
1	164184	30.51	0
1	164741	30.61	0
1	165298	30.71	0
1	165855	30.81	0
1	166412	30.91	0
1	166977	31.01	0
1	167534	31.11	0
1	168091	31.21	0
1	168648	31.31	0
1	169205	31.41	0
1	169762	31.51	0
1	170319	31.61	0
1	170876	31.71	0
1	171433	31.81	0
1	171990	31.91	0
1	172555	32.01	0
1	173112	32.11	0
1	173669	32.21	0
1	174226	32.31	0
1	174783	32.41	0
1	175340	32.51	0
1	175897	32.61	0
1	176454	32.71	0
1	177011	32.81	0
1	177568	32.91	0
1	178133	33.01	0
1	178690	33.11	0
1	179247	33.21	0
1	179804	33.31	0
1	180361	33.41	0
1	180918	33.51	0
1	181475	33.61	0
1	182032	33.71	0
1	182589	33.81	0
1	183146	33.91	0
1	183711	34.01	0
1	184268	34.11	0
1	184825	34.21	0
1	185382	34.31	0
1	185939	34.41	0
1	186496	34.51	0
1	187053	34.61	0
1	187610	34.71	0
1	188167	34.81	0
1	188724	34.91	0
1	189289	35.01	0
1	189846	35.11	0
1	190403	35.21	0
1	190960	35.31	0
1	191517	35.41	0
1	192074	35.51	0
1	192631	35.61	0
1	193188	35.71	0
1	193745	35.81	0
1	194302	35.91	0
1	194867	36.01	0
1	195424	36.11	0
1	195981	36.21	0
1	196538	36.31	0
1	197095	36.41	0
1	197652	36.51	0
1	198209	36.61	0
1	198766	36.71	0
1	199323	36.81	0
1	199880	36.91	0
1	200445	37.01	0
1	201002	37.11	0
1	201559	37.21	0
1	202116	37.31	0
1	202673	37.41	0
1	203230	37.51	0
1	203787	37.61	0
1	204344	37.71	0
1	204901	37.81	0
1	205458	37.91	0
1	206023	38.01	0
1	206580	38.11	0
1	207137	38.21	0
1	207694	38.31	0
1	208251	38.41	0
1	208808	38.51	0
1	209365	38.61	0
1	209922	38.71	0
1	210479	38.81	0
1	211036	38.91	0
1	211601	39.01	0
1	212158	39.11	0
1	212715	39.21	0
1	213272	39.31	0
1	213829	39.41	0
1	214386	39.51	0
1	214943	39.61	0
1	215500	39.71	0
1	216057	39.81	0
1	216614	39.91	0
1	217179	40.01	0
1	217736	40.11	0
1	218293	40.21	0
1	218850	40.31	0
1	219407	40.41	0
1	219964	40.51	0
1	220521	40.61	0
1	221078	40.71	0
1	221635	40.81	0
1	222192	40.91	0
0	232	1.11	-1
0	788	1.21	-1
0	1344	1.31	-1
0	1900	1.41	-1
0	2456	1.51	-1
0	3012	1.61	-1
0	3568	1.71	-1
0	4124	1.81	-1
0	4680	1.91	-1
0	5244	2.01	-1
0	5800	2.11	-1
0	6356	2.21	-1
0	6912	2.31	-1
0	7468	2.41	-1
0	8024	2.51	-1
0	8580	2.61	-1
0	9136	2.71	-1
0	9692	2.81	-1
0	10248	2.91	-1
0	10812	3.01	-1
0	11368	3.11	-1
0	11924	3.21	-1
0	12480	3.31	-1
0	13036	3.41	-1
0	13592	3.51	-1
0	14148	3.61	-1
0	14704	3.71	-1
0	15260	3.81	-1
0	15816	3.91	-1
0	16380	4.01	-1
0	16936	4.11	-1
0	17492	4.21	-1
0	18048	4.31	-1
0	18604	4.41	-1
0	19160	4.51	-1
0	19716	4.61	-1
0	20272	4.71	-1
0	20828	4.81	-1
0	21384	4.91	-1
0	21949	5.01	-1
0	22506	5.11	-1
0	23063	5.21	-1
0	23620	5.31	-1
0	24177	5.41	-1
0	24734	5.51	-1
0	25291	5.61	-1
0	25848	5.71	-1
0	26405	5.81	-1
0	26962	5.91	-1
0	27527	6.01	-1
0	28084	6.11	-1
0	28641	6.21	-1
0	29198	6.31	-1
0	29755	6.41	-1
0	30312	6.51	-1
0	30869	6.61	-1
0	31426	6.71	-1
0	31983	6.81	-1
0	32540	6.91	-1
0	33105	7.01	-1
0	33662	7.11	-1
0	34219	7.21	-1
0	34776	7.31	-1
0	35333	7.41	-1
0	35890	7.51	-1
0	36447	7.61	-1
0	37004	7.71	-1
0	37561	7.81	-1
0	38118	7.91	-1
0	38683	8.01	-1
0	39240	8.11	-1
0	39797	8.21	-1
0	40354	8.31	-1
0	40911	8.41	-1
0	41468	8.51	-1
0	42025	8.61	-1
0	42582	8.71	-1
0	43139	8.81	-1
0	43696	8.91	-1
0	44261	9.01	-1
0	44818	9.11	-1
0	45375	9.21	-1
0	45932	9.31	-1
0	46489	9.41	-1
0	47046	9.51	-1
0	47603	9.61	-1
0	48160	9.71	-1
0	48717	9.81	-1
0	49274	9.91	-1
0	49839	10.01	-1
0	50396	10.11	-1
0	50953	10.21	-1
0	51510	10.31	-1
0	52067	10.41	-1
0	52624	10.51	-1
0	53181	10.61	-1
0	53738	10.71	-1
0	54295	10.81	-1
0	54852	10.91	-1
0	55417	11.01	-1
0	55974	11.11	-1
0	56531	11.21	-1
0	57088	11.31	-1
0	57645	11.41	-1
0	58202	11.51	-1
0	58759	11.61	-1
0	59316	11.71	-1
0	59873	11.81	-1
0	60430	11.91	-1
0	60995	12.01	-1
0	61552	12.11	-1
0	62109	12.21	-1
0	62666	12.31	-1
0	63223	12.41	-1
0	63780	12.51	-1
0	64337	12.61	-1
0	64894	12.71	-1
0	65451	12.81	-1
0	66008	12.91	-1
0	66573	13.01	-1
0	67130	13.11	-1
0	67687	13.21	-1
0	68244	13.31	-1
0	68801	13.41	-1
0	69358	13.51	-1
0	69915	13.61	-1
0	70472	13.71	-1
0	71029	13.81	-1
0	71586	13.91	-1
0	72151	14.01	-1
0	72708	14.11	-1
0	73265	14.21	-1
0	73822	14.31	-1
0	74379	14.41	-1
0	74936	14.51	-1
0	75493	14.61	-1
0	76050	14.71	-1
0	76607	14.81	-1
0	77164	14.91	-1
0	77729	15.01	-1
0	78286	15.11	-1
0	78843	15.21	-1
0	79400	15.31	-1
0	79957	15.41	-1
0	80514	15.51	-1
0	81071	15.61	-1
0	81628	15.71	-1
0	82185	15.81	-1
0	82742	15.91	-1
0	83307	16.01	-1
0	83864	16.11	-1
0	84421	16.21	-1
0	84978	16.31	-1
0	85535	16.41	-1
0	86092	16.51	-1
0	86649	16.61	-1
0	87206	16.71	-1
0	87763	16.81	-1
0	88320	16.91	-1
0	88885	17.01	-1
0	89442	17.11	-1
0	89999	17.21	-1
0	90556	17.31	-1
0	91113	17.41	-1
0	91670	17.51	-1
0	92227	17.61	-1
0	92784	17.71	-1
0	93341	17.81	-1
0	93898	17.91	-1
0	94463	18.01	-1
0	95020	18.11	-1
0	95577	18.21	-1
0	96134	18.31	-1
0	96691	18.41	-1
0	97248	18.51	-1
0	97805	18.61	-1
0	98362	18.71	-1
0	98919	18.81	-1
0	99476	18.91	-1
0	100041	19.01	-1
0	100598	19.11	-1
0	101155	19.21	-1
0	101712	19.31	-1
0	102269	19.41	-1
0	102826	19.51	-1
0	103383	19.61	-1
0	103940	19.71	-1
0	104497	19.81	-1
0	105054	19.91	-1
0	105619	20.01	-1
0	106176	20.11	-1
0	106733	20.21	-1
0	107290	20.31	-1
0	107847	20.41	-1
0	108404	20.51	-1
0	108961	20.61	-1
0	109518	20.71	-1
0	110075	20.81	-1
0	110632	20.91	-1
0	111197	21.01	-1
0	111754	21.11	-1
0	112311	21.21	-1
0	112868	21.31	-1
0	113425	21.41	-1
0	113982	21.51	-1
0	114539	21.61	-1
0	115096	21.71	-1
0	115653	21.81	-1
0	116210	21.91	-1
0	116775	22.01	-1
0	117332	22.11	-1
0	117889	22.21	-1
0	118446	22.31	-1
0	119003	22.41	-1
0	119560	22.51	-1
0	120117	22.61	-1
0	120674	22.71	-1
0	121231	22.81	-1
0	121788	22.91	-1
0	122353	23.01	-1
0	122910	23.11	-1
0	123467	23.21	-1
0	124024	23.31	-1
0	124581	23.41	-1
0	125138	23.51	-1
0	125695	23.61	-1
0	126252	23.71	-1
0	126809	23.81	-1
0	127366	23.91	-1
0	127931	24.01	-1
0	128488	24.11	-1
0	129045	24.21	-1
0	129602	24.31	-1
0	130159	24.41	-1
0	130716	24.51	-1
0	131273	24.61	-1
0	131830	24.71	-1
0	132387	24.81	-1
0	132944	24.91	-1
0	133509	25.01	-1
0	134066	25.11	-1
0	134623	25.21	-1
0	135180	25.31	-1
0	135737	25.41	-1
0	136294	25.51	-1
0	136851	25.61	-1
0	137408	25.71	-1
0	137965	25.81	-1
0	138522	25.91	-1
0	139087	26.01	-1
0	139644	26.11	-1
0	140201	26.21	-1
0	140758	26.31	-1
0	141315	26.41	-1
0	141872	26.51	-1
0	142429	26.61	-1
0	142986	26.71	-1
0	143543	26.81	-1
0	144100	26.91	-1
0	144665	27.01	-1
0	145222	27.11	-1
0	145779	27.21	-1
0	146336	27.31	-1
0	146893	27.41	-1
0	147450	27.51	-1
0	148007	27.61	-1
0	148564	27.71	-1
0	149121	27.81	-1
0	149678	27.91	-1
0	150243	28.01	-1
0	150800	28.11	-1
0	151357	28.21	-1
0	151914	28.31	-1
0	152471	28.41	-1
0	153028	28.51	-1
0	153585	28.61	-1
0	154142	28.71	-1
0	154699	28.81	-1
0	155256	28.91	-1
0	155821	29.01	-1
0	156378	29.11	-1
0	156935	29.21	-1
0	157492	29.31	-1
0	158049	29.41	-1
0	158606	29.51	-1
0	159163	29.61	-1
0	159720	29.71	-1
0	160277	29.81	-1
0	160834	29.91	-1
0	161399	30.01	-1
0	161956	30.11	-1
0	162513	30.21	-1
0	163070	30.31	-1
0	163627	30.41	-1
0	164184	30.51	-1
0	164741	30.61	-1
0	165298	30.71	-1
0	165855	30.81	-1
0	166412	30.91	-1
0	166977	31.01	-1
0	167534	31.11	-1
0	168091	31.21	-1
0	168648	31.31	-1
0	169205	31.41	-1
0	169762	31.51	-1
0	170319	31.61	-1
0	170876	31.71	-1
0	171433	31.81	-1
0	171990	31.91	-1
0	172555	32.01	-1
0	173112	32.11	-1
0	173669	32.21	-1
0	174226	32.31	-1
0	174783	32.41	-1
0	175340	32.51	-1
0	175897	32.61	-1
0	176454	32.71	-1
0	177011	32.81	-1
0	177568	32.91	-1
0	178133	33.01	-1
0	178690	33.11	-1
0	179247	33.21	-1
0	179804	33.31	-1
0	180361	33.41	-1
0	180918	33.51	-1
0	181475	33.61	-1
0	182032	33.71	-1
0	182589	33.81	-1
0	183146	33.91	-1
0	183711	34.01	-1
0	184268	34.11	-1
0	184825	34.21	-1
0	185382	34.31	-1
0	185939	34.41	-1
0	186496	34.51	-1
0	187053	34.61	-1
0	187610	34.71	-1
0	188167	34.81	-1
0	188724	34.91	-1
0	189289	35.01	-1
0	189846	35.11	-1
0	190403	35.21	-1
0	190960	35.31	-1
0	191517	35.41	-1
0	192074	35.51	-1
0	192631	35.61	-1
0	193188	35.71	-1
0	193745	35.81	-1
0	194302	35.91	-1
0	194867	36.01	-1
0	195424	36.11	-1
0	195981	36.21	-1
0	196538	36.31	-1
0	197095	36.41	-1
0	197652	36.51	-1
0	198209	36.61	-1
0	198766	36.71	-1
0	199323	36.81	-1
0	199880	36.91	-1
0	200445	37.01	-1
0	201002	37.11	-1
0	201559	37.21	-1
0	202116	37.31	-1
0	202673	37.41	-1
0	203230	37.51	-1
0	203787	37.61	-1
0	204344	37.71	-1
0	204901	37.81	-1
0	205458	37.91	-1
0	206023	38.01	-1
0	206580	38.11	-1
0	207137	38.21	-1
0	207694	38.31	-1
0	208251	38.41	-1
0	208808	38.51	-1
0	209365	38.61	-1
0	209922	38.71	-1
0	210479	38.81	-1
0	211036	38.91	-1
0	211601	39.01	-1
0	212158	39.11	-1
0	212715	39.21	-1
0	213272	39.31	-1
0	213829	39.41	-1
0	214386	39.51	-1
0	214943	39.61	-1
0	215500	39.71	-1
0	216057	39.81	-1
0	216614	39.91	-1
0	217179	40.01	-1
0	217736	40.11	-1
0	218293	40.21	-1
0	218850	40.31	-1
0	219407	40.41	-1
0	219964	40.51	-1
0	220521	40.61	-1
0	221078	40.71	-1
0	221635	40.81	-1
0	222192	40.91	-1
2	232	1.11	0
2	788	1.21	0
2	1344	1.31	0
2	1900	1.41	0
2	2456	1.51	0
2	3012	1.61	0
2	3568	1.71	0
2	4124	1.81	0
2	4680	1.91	0
2	5244	2.01	0
2	5800	2.11	0
2	6356	2.21	0
2	6912	2.31	0
2	7468	2.41	0
2	8024	2.51	0
2	8580	2.61	0
2	9136	2.71	0
2	9692	2.81	0
2	10248	2.91	0
2	10812	3.01	0
2	11368	3.11	0
2	11924	3.21	0
2	12480	3.31	0
2	13036	3.41	0
2	13592	3.51	0
2	14148	3.61	0
2	14704	3.71	0
2	15260	3.81	0
2	15816	3.91	0
2	16380	4.01	0
2	16936	4.11	0
2	17492	4.21	0
2	18048	4.31	0
2	18604	4.41	0
2	19160	4.51	0
2	19716	4.61	0
2	20272	4.71	0
2	20828	4.81	0
2	21384	4.91	0
2	21949	5.01	0
2	22506	5.11	0
2	23063	5.21	0
2	23620	5.31	0
2	24177	5.41	0
2	24734	5.51	0
2	25291	5.61	0
2	25848	5.71	0
2	26405	5.81	0
2	26962	5.91	0
2	27527	6.01	0
2	28084	6.11	0
2	28641	6.21	0
2	29198	6.31	0
2	29755	6.41	0
2	30312	6.51	0
2	30869	6.61	0
2	31426	6.71	0
2	31983	6.81	0
2	32540	6.91	0
2	33105	7.01	0
2	33662	7.11	0
2	34219	7.21	0
2	34776	7.31	0
2	35333	7.41	0
2	35890	7.51	0
2	36447	7.61	0
2	37004	7.71	0
2	37561	7.81	0
2	38118	7.91	0
2	38683	8.01	0
2	39240	8.11	0
2	39797	8.21	0
2	40354	8.31	0
2	40911	8.41	0
2	41468	8.51	0
2	42025	8.61	0
2	42582	8.71	0
2	43139	8.81	0
2	43696	8.91	0
2	44261	9.01	0
2	44818	9.11	0
2	45375	9.21	0
[...]
35	166460	30.96956062716	0.099999112081
35	167025	31.069559736925	0.099999109765
35	167582	31.169558844574	0.099999107649
35	168139	31.269557950344	0.09999910577
35	168696	31.369557054494	0.09999910415
35	169253	31.469556157308	0.099999102814
35	169810	31.569555259086	0.099999101778
35	170367	31.669554360145	0.099999101059
35	170924	31.769566460818	0.100012100673
35	171481	31.869565561443	0.099999100625
35	172038	31.969564662363	0.09999910092
35	172603	32.069563763924	0.099999101561
35	173160	32.169562866465	0.099999102541
35	173717	32.269561970313	0.099999103848
35	174274	32.36956107578	0.099999105467
35	174831	32.469560183158	0.099999107378
35	175388	32.569559292704	0.099999109546
35	175945	32.66955840465	0.099999111946
35	176502	32.769557519201	0.099999114551
35	177059	32.869556636527	0.099999117326
35	177616	32.96955575677	0.099999120243
35	178181	33.069554880046	0.099999123276
35	178738	33.169554006443	0.099999126397
35	179295	33.269566136022	0.100012129579
35	179852	33.369565268821	0.099999132799
35	180409	33.469564404849	0.099999136028
35	180966	33.569563544089	0.09999913924
35	181523	33.669562686497	0.099999142408
35	182080	33.769561832006	0.099999145509
35	182637	33.869560980521	0.099999148515
35	183194	33.96956013192	0.099999151399
35	183759	34.069559286056	0.099999154136
35	184316	34.169558442757	0.099999156701
35	184873	34.269557601822	0.099999159065
35	185430	34.369556763033	0.099999161211
35	185987	34.469555926143	0.09999916311
35	186544	34.569555090887	0.099999164744
35	187101	34.669554256982	0.099999166095
35	187658	34.769566424142	0.10001216716
35	188215	34.86956559207	0.099999167928
35	188772	34.969564760467	0.099999168397
35	189337	35.069563929042	0.099999168575
35	189894	35.169563097509	0.099999168467
35	190451	35.269562265588	0.099999168079
35	191008	35.369561433013	0.099999167425
35	191565	35.469560599525	0.099999166512
35	192122	35.569559764871	0.099999165346
35	192679	35.66955892881	0.099999163939
35	193236	35.769558091109	0.099999162299
35	193793	35.869557251552	0.099999160443
35	194350	35.969556409931	0.099999158379
35	194915	36.069555566055	0.099999156124
35	195472	36.169554719754	0.099999153699
35	196029	36.269566870872	0.100012151118
35	196586	36.369566019277	0.099999148405
35	197143	36.46956516486	0.099999145583
35	197700	36.569564307536	0.099999142676
35	198257	36.669563447244	0.099999139708
35	198814	36.769562583951	0.099999136707
35	199371	36.869561717649	0.099999133698
35	199928	36.969560848363	0.099999130714
35	200493	37.069559976137	0.099999127774
35	201050	37.169559101039	0.099999124902
35	201607	37.269558223158	0.099999122119
35	202164	37.369557342598	0.09999911944
35	202721	37.469556459468	0.09999911687
35	203278	37.569555573888	0.09999911442
35	203835	37.669554685981	0.099999112093
35	204392	37.769566795872	0.100012109891
35	204949	37.86956590369	0.099999107818
35	205506	37.969565009567	0.099999105877
35	206071	38.069564113639	0.099999104072
35	206628	38.169563216044	0.099999102405
35	207185	38.269562316927	0.099999100883
35	207742	38.369561416425	0.099999099498
35	208299	38.469560514679	0.099999098254
35	208856	38.569559611826	0.099999097147
35	209413	38.669558707997	0.099999096171
35	209970	38.769557803316	0.099999095319
35	210527	38.869556897895	0.099999094579
35	211084	38.969555991834	0.099999093939
35	211649	39.069555085219	0.099999093385
35	212206	39.169554178122	0.099999092903
35	212763	39.269566270595	0.100012092473
35	213320	39.369565362674	0.099999092079
35	213877	39.469564454373	0.099999091699
35	214434	39.569563545689	0.099999091316
35	214991	39.669562636601	0.099999090912
35	215548	39.76956172708	0.099999090479
35	216105	39.869560817086	0.099999090006
35	216662	39.969559906576	0.09999908949
35	217227	40.069558995502	0.099999088926
35	217784	40.169558083817	0.099999088315
35	218341	40.269557171477	0.09999908766
35	218898	40.369556258433	0.099999086956
35	219455	40.469555344639	0.099999086206
35	220012	40.569554430048	0.099999085409
35	220569	40.669566514607	0.100012084559
35	221126	40.769565598267	0.09999908366
35	221683	40.869564680979	0.099999082712
36	836	1.269558435995	0.09999938281
36	1392	1.369557818804	0.099999382809
36	1948	1.46955720161	0.099999382806
36	2504	1.569556584413	0.099999382803
36	3060	1.669555967203	0.09999938279
36	3616	1.769555349973	0.09999938277
36	4172	1.869554732704	0.099999382731
36	4728	1.969554115374	0.09999938267
36	5292	2.069566497952	0.100012382578
36	5848	2.169565880398	0.099999382446
36	6404	2.269565262661	0.099999382263
36	6960	2.369564644683	0.099999382022
36	7516	2.469564026394	0.099999381711
36	8072	2.569563407709	0.099999381315
36	8628	2.669562788536	0.099999380827
36	9184	2.769562168774	0.099999380238
36	9740	2.869561548305	0.099999379531
36	10296	2.969560927004	0.099999378699
36	10860	3.069560304734	0.09999937773
36	11416	3.16955968135	0.099999376616
36	11972	3.269559056699	0.099999375349
36	12528	3.36955843062	0.099999373921
36	13084	3.469557802943	0.099999372323
36	13640	3.569557173498	0.099999370555
36	14196	3.669556542103	0.099999368605
36	14752	3.769555908578	0.099999366475
36	15308	3.869555272739	0.099999364161
36	15864	3.969554634402	0.099999361663
36	16428	4.069566993383	0.100012358981
36	16984	4.169566349496	0.099999356113
36	17540	4.269565702565	0.099999353069
36	18096	4.369565052412	0.099999349847
36	18652	4.469564398863	0.099999346451
36	19208	4.569563741753	0.09999934289
36	19764	4.669563080919	0.099999339166
36	20320	4.769562416211	0.099999335292
36	20876	4.869561747482	0.099999331271
36	21432	4.969561074598	0.099999327116
36	21997	5.069560397429	0.099999322831
36	22554	5.16955971586	0.099999318431
36	23111	5.269559029788	0.099999313928
36	23668	5.369558339122	0.099999309334
36	24225	5.469557643795	0.099999304673
36	24782	5.569556943763	0.099999299968
36	25339	5.669556239003	0.09999929524
36	25896	5.769555529528	0.099999290525
36	26453	5.869554815372	0.099999285844
36	27010	5.969554096597	0.099999281225
36	27575	6.069566373297	0.1000122767
36	28132	6.169565645589	0.099999272292
36	28689	6.269564913618	0.099999268029
36	29246	6.369564177548	0.09999926393
36	29803	6.469563437573	0.099999260025
36	30360	6.569562693904	0.099999256331
36	30917	6.669561946773	0.099999252869
36	31474	6.769561196425	0.099999249652
36	32031	6.869560443117	0.099999246692
36	32588	6.969559687109	0.099999243992
36	33153	7.069558928658	0.099999241549
36	33710	7.169558168016	0.099999239358
36	34267	7.269557405421	0.099999237405
36	34824	7.36955664109	0.099999235669
36	35381	7.469555875216	0.099999234126
36	35938	7.569555107961	0.099999232745
36	36495	7.669554339456	0.099999231495
36	37052	7.769566569798	0.100012230342
36	37609	7.869565799049	0.099999229251
36	38166	7.96956502724	0.099999228191
36	38731	8.069564254366	0.099999227126
36	39288	8.169563480392	0.099999226026
36	39845	8.269562705251	0.099999224859
36	40402	8.369561928849	0.099999223598
36	40959	8.469561151069	0.09999922222
36	41516	8.569560371764	0.099999220695
36	42073	8.669559590775	0.099999219011
36	42630	8.769558807917	0.099999217142
36	43187	8.869558022998	0.099999215081
36	43744	8.969557235809	0.099999212811
36	44309	9.069556446131	0.099999210322
36	44866	9.16955565374	0.099999207609
36	45423	9.26955485841	0.09999920467
36	45980	9.369554059908	0.099999201498
36	46537	9.469566258007	0.100012198099
36	47094	9.569565452476	0.099999194469
36	47651	9.669564643094	0.099999190618
36	48208	9.76956382965	0.099999186556
36	48765	9.869563011953	0.099999182303
36	49322	9.969562189833	0.09999917788
36	49887	10.069561363149	0.099999173316
36	50444	10.169560531797	0.099999168648
36	51001	10.269559695713	0.099999163916
36	51558	10.369558854873	0.09999915916
36	52115	10.469558009298	0.099999154425
36	52672	10.569557159056	0.099999149758
36	53229	10.66955630425	0.099999145194
36	53786	10.769555445032	0.099999140782
36	54343	10.869554581585	0.099999136553
36	54900	10.969566714134	0.100012132549
36	55465	11.069565842941	0.099999128807
36	56022	11.169564968295	0.099999125354
36	56579	11.269564090512	0.099999122217
36	57136	11.369563209934	0.099999119422
36	57693	11.469562326924	0.09999911699
36	58250	11.56956144186	0.099999114936
36	58807	11.669560555134	0.099999113274
36	59364	11.769559667146	0.099999112012
36	59921	11.869558778303	0.099999111157
36	60478	11.969557889017	0.099999110714
36	61043	12.069556999696	0.099999110679
36	61600	12.169556110737	0.099999111041
36	62157	12.269555222519	0.099999111782
36	62714	12.369554335404	0.099999112885
36	63271	12.469566449716	0.100012114312
36	63828	12.569565565751	0.099999116035
36	64385	12.66956468376	0.099999118009
36	64942	12.769563803947	0.099999120187
36	65499	12.86956292647	0.099999122523
36	66056	12.969562051436	0.099999124966
36	66621	13.06956117891	0.099999127474
36	67178	13.169560308905	0.099999129995
36	67735	13.269559441392	0.099999132487
36	68292	13.369558576297	0.099999134905
36	68849	13.469557713502	0.099999137205
36	69406	13.569556852857	0.099999139355
36	69963	13.669555994174	0.099999141317
36	70520	13.769555137235	0.099999143061
36	71077	13.869554281793	0.099999144558
36	71634	13.969566427578	0.100012145785
36	72199	14.069565574299	0.099999146721
36	72756	14.169564721648	0.099999147349
36	73313	14.269563869306	0.099999147658
36	73870	14.369563016944	0.099999147638
36	74427	14.469562164226	0.099999147282
36	74984	14.569561310815	0.099999146589
36	75541	14.669560456373	0.099999145558
36	76098	14.769559600581	0.099999144208
36	76655	14.869558743134	0.099999142553
36	77212	14.969557883752	0.099999140618
36	77777	15.069557022187	0.099999138435
36	78334	15.169556158226	0.099999136039
36	78891	15.269555291701	0.099999133475
36	79448	15.369554422486	0.099999130785
36	80005	15.4695665505	0.100012128014
36	80562	15.569565675709	0.099999125209
36	81119	15.669564798119	0.09999912241
36	81676	15.769563917784	0.099999119665
36	82233	15.869563034799	0.099999117015
36	82790	15.969562149295	0.099999114496
36	83355	16.069561261442	0.099999112147
36	83912	16.169560371442	0.09999911
36	84469	16.26955947953	0.099999108088
36	85026	16.369558585962	0.099999106432
36	85583	16.469557691023	0.099999105061
36	86140	16.569556795011	0.099999103988
36	86697	16.669555898244	0.099999103233
36	87254	16.769555001053	0.099999102809
36	87811	16.869554103777	0.099999102724
36	88368	16.969566206757	0.10001210298
36	88933	17.069565310343	0.099999103586
36	89490	17.169564414871	0.099999104528
36	90047	17.269563520668	0.099999105797
36	90604	17.369562628043	0.099999107375
36	91161	17.469561737282	0.099999109239
36	91718	17.569560848629	0.099999111347
36	92275	17.6695599623	0.099999113671
36	92832	17.769559078467	0.099999116167
36	93389	17.869558197253	0.099999118786
36	93946	17.969557318739	0.099999121486
36	94511	18.069556442961	0.099999124222
36	95068	18.169555569907	0.099999126946
36	95625	18.269554699524	0.099999129617
36	96182	18.369566831719	0.100012132195
36	96739	18.469565966357	0.099999134638
36	97296	18.569565103269	0.099999136912
36	97853	18.669564242249	0.09999913898
36	98410	18.769563383066	0.099999140817
36	98967	18.869562525461	0.099999142395
36	99524	18.96956166915	0.099999143689
36	100089	19.069560813833	0.099999144683
36	100646	19.169559959191	0.099999145358
36	101203	19.269559104899	0.099999145708
36	101760	19.369558250615	0.099999145716
36	102317	19.469557395997	0.099999145382
36	102874	19.5695565407	0.099999144703
36	103431	19.669555684388	0.099999143688
36	103988	19.769554826731	0.099999142343
36	104545	19.869566967418	0.100012140687
36	105102	19.969566106172	0.099999138754
36	105667	20.069565242744	0.099999136572
36	106224	20.169564376917	0.099999134173
36	106781	20.269563508523	0.099999131606
36	107338	20.369562637437	0.099999128914
36	107895	20.469561763578	0.099999126141
36	108452	20.569560886912	0.099999123334
36	109009	20.66956000745	0.099999120538
36	109566	20.769559125248	0.099999117798
36	110123	20.869558240396	0.099999115148
36	110680	20.969557353033	0.099999112637
36	111245	21.069556463327	0.099999110294
36	111802	21.169555571484	0.099999108157
36	112359	21.269554677739	0.099999106255
36	112916	21.369566782352	0.100012104613
36	113473	21.469565885606	0.099999103254
36	114030	21.569564987803	0.099999102197
36	114587	21.669564089262	0.099999101459
36	115144	21.769563190315	0.099999101053
36	115701	21.869562291299	0.099999100984
36	116258	21.969561392563	0.099999101264
36	116823	22.06956049445	0.099999101887
36	117380	22.169559597303	0.099999102853
36	117937	22.269558701448	0.099999104145
36	118494	22.369557807196	0.099999105748
36	119051	22.469556914831	0.099999107635
36	119608	22.569556024604	0.099999109773
36	120165	22.66955513673	0.099999112126
36	120722	22.769554251378	0.099999114648
36	121279	22.869566368676	0.100012117298
36	121836	22.969565488704	0.099999120028
36	122401	23.0695646115	0.099999122796
36	122958	23.169563737053	0.099999125553
36	123515	23.269562865311	0.099999128258
36	124072	23.369561996182	0.099999130871
36	124629	23.469561129532	0.09999913335
36	125186	23.569560265189	0.099999135657
36	125743	23.669559402951	0.099999137762
36	126300	23.769558542582	0.099999139631
36	126857	23.869557683828	0.099999141246
36	127414	23.969556826404	0.099999142576
36	127979	24.069555970006	0.099999143602
36	128536	24.169555114321	0.099999144315
36	129093	24.269554259018	0.099999144697
36	129650	24.369566403759	0.100012144741
36	130207	24.469565548199	0.09999914444
36	130764	24.569564691994	0.099999143795
36	131321	24.669563834802	0.099999142808
36	131878	24.769562976298	0.099999141496
36	132435	24.869562116172	0.099999139874
36	132992	24.969561254142	0.09999913797
36	133557	25.069560389955	0.099999135813
36	134114	25.169559523402	0.099999133447
36	134671	25.26955865431	0.099999130908
36	135228	25.369557782554	0.099999128244
36	135785	25.469556908053	0.099999125499
36	136342	25.56955603077	0.099999122717
36	136899	25.669555150718	0.099999119948
36	137456	25.769554267949	0.099999117231
36	138013	25.869566382556	0.100012114607
36	138570	25.969565494675	0.099999112119
36	139135	26.069564604475	0.0999991098
36	139692	26.169563712161	0.099999107686
36	140249	26.269562817968	0.099999105807
36	140806	26.369561922152	0.099999104184
36	141363	26.469561024995	0.099999102843
36	141920	26.569560126803	0.099999101808
36	142477	26.669559227893	0.09999910109
36	143034	26.769558328593	0.0999991007
36	143591	26.869557429244	0.099999100651
36	144148	26.96955653019	0.099999100946
36	144713	27.069555631774	0.099999101584
36	145270	27.16955473434	0.099999102566
36	145827	27.269566838212	0.100012103872
36	146384	27.369565943701	0.099999105489
36	146941	27.469565051089	0.099999107388
36	147498	27.569564160629	0.09999910954
36	148055	27.669563272532	0.099999111903
36	148612	27.769562386971	0.099999114439
36	149169	27.869561504069	0.099999117098
36	149726	27.969560623911	0.099999119842
36	150291	28.069559746527	0.099999122616
36	150848	28.16955887191	0.099999125383
36	151405	28.269558000009	0.099999128099
36	151962	28.369557130728	0.099999130719
36	152519	28.469556263931	0.099999133203
36	153076	28.569555399452	0.099999135521
36	153633	28.669554537084	0.099999137632
36	154190	28.769566676594	0.10001213951
36	154747	28.869565817725	0.099999141131
36	155304	28.969564960192	0.099999142467
36	155869	29.069564103695	0.099999143503
36	156426	29.169563247911	0.099999144216
36	156983	29.269562392515	0.099999144604
36	157540	29.369561537169	0.099999144654
36	158097	29.469560681527	0.099999144358
36	158654	29.569559825243	0.099999143716
36	159211	29.669558967977	0.099999142734
36	159768	29.769558109401	0.099999141424
36	160325	29.869557249208	0.099999139807
36	160882	29.969556387115	0.099999137907
36	161447	30.069555522868	0.099999135753
36	162004	30.169554656256	0.099999133388
36	162561	30.269566787109	0.100012130853
36	163118	30.369565915299	0.09999912819
36	163675	30.469565040748	0.099999125449
36	164232	30.56956416342	0.099999122672
36	164789	30.669563283323	0.099999119903
36	165346	30.769562400512	0.099999117189
36	165903	30.869561515079	0.099999114567
36	166460	30.96956062716	0.099999112081
36	167025	31.069559736925	0.099999109765
36	167582	31.169558844574	0.099999107649
36	168139	31.269557950344	0.09999910577
36	168696	31.369557054494	0.09999910415
36	169253	31.469556157308	0.099999102814
36	169810	31.569555259086	0.099999101778
36	170367	31.669554360145	0.099999101059
36	170924	31.769566460818	0.100012100673
36	171481	31.869565561443	0.099999100625
36	172038	31.969564662363	0.09999910092
36	172603	32.069563763924	0.099999101561
36	173160	32.169562866465	0.099999102541
36	173717	32.269561970313	0.099999103848
36	174274	32.36956107578	0.099999105467
36	174831	32.469560183158	0.099999107378
36	175388	32.569559292704	0.099999109546
36	175945	32.66955840465	0.099999111946
36	176502	32.769557519201	0.099999114551
36	177059	32.869556636527	0.099999117326
36	177616	32.96955575677	0.099999120243
36	178181	33.069554880046	0.099999123276
36	178738	33.169554006443	0.099999126397
36	179295	33.269566136022	0.100012129579
36	179852	33.369565268821	0.099999132799
36	180409	33.469564404849	0.099999136028
36	180966	33.569563544089	0.09999913924
36	181523	33.669562686497	0.099999142408
36	182080	33.769561832006	0.099999145509
36	182637	33.869560980521	0.099999148515
36	183194	33.96956013192	0.099999151399
36	183759	34.069559286056	0.099999154136
36	184316	34.169558442757	0.099999156701
36	184873	34.269557601822	0.099999159065
36	185430	34.369556763033	0.099999161211
36	185987	34.469555926143	0.09999916311
36	186544	34.569555090887	0.099999164744
36	187101	34.669554256982	0.099999166095
36	187658	34.769566424142	0.10001216716
36	188215	34.86956559207	0.099999167928
36	188772	34.969564760467	0.099999168397
36	189337	35.069563929042	0.099999168575
36	189894	35.169563097509	0.099999168467
36	190451	35.269562265588	0.099999168079
36	191008	35.369561433013	0.099999167425
36	191565	35.469560599525	0.099999166512
36	192122	35.569559764871	0.099999165346
36	192679	35.66955892881	0.099999163939
36	193236	35.769558091109	0.099999162299
36	193793	35.869557251552	0.099999160443
36	194350	35.969556409931	0.099999158379
36	194915	36.069555566055	0.099999156124
36	195472	36.169554719754	0.099999153699
36	196029	36.269566870872	0.100012151118
36	196586	36.369566019277	0.099999148405
36	197143	36.46956516486	0.099999145583
36	197700	36.569564307536	0.099999142676
36	198257	36.669563447244	0.099999139708
36	198814	36.769562583951	0.099999136707
36	199371	36.869561717649	0.099999133698
36	199928	36.969560848363	0.099999130714
36	200493	37.069559976137	0.099999127774
36	201050	37.169559101039	0.099999124902
36	201607	37.269558223158	0.099999122119
36	202164	37.369557342598	0.09999911944
36	202721	37.469556459468	0.09999911687
36	203278	37.569555573888	0.09999911442
36	203835	37.669554685981	0.099999112093
36	204392	37.769566795872	0.100012109891
36	204949	37.86956590369	0.099999107818
36	205506	37.969565009567	0.099999105877
36	206071	38.069564113639	0.099999104072
36	206628	38.169563216044	0.099999102405
36	207185	38.269562316927	0.099999100883
36	207742	38.369561416425	0.099999099498
36	208299	38.469560514679	0.099999098254
36	208856	38.569559611826	0.099999097147
36	209413	38.669558707997	0.099999096171
36	209970	38.769557803316	0.099999095319
36	210527	38.869556897895	0.099999094579
36	211084	38.969555991834	0.099999093939
36	211649	39.069555085219	0.099999093385
36	212206	39.169554178122	0.099999092903
36	212763	39.269566270595	0.100012092473
36	213320	39.369565362674	0.099999092079
36	213877	39.469564454373	0.099999091699
36	214434	39.569563545689	0.099999091316
36	214991	39.669562636601	0.099999090912
36	215548	39.76956172708	0.099999090479
36	216105	39.869560817086	0.099999090006
36	216662	39.969559906576	0.09999908949
36	217227	40.069558995502	0.099999088926
36	217784	40.169558083817	0.099999088315
36	218341	40.269557171477	0.09999908766
36	218898	40.369556258433	0.099999086956
36	219455	40.469555344639	0.099999086206
36	220012	40.569554430048	0.099999085409
36	220569	40.669566514607	0.100012084559
36	221126	40.769565598267	0.09999908366
36	221683	40.869564680979	0.099999082712
