file 1684851 1501770708                                         
version 2
run SinusoidalJammingDetail-1158-20170803-16:31:18-35694
attr CACCSpacing 5
attr attackAcc -30
attr attackPos 7
attr attackSpeed 150
attr attackStart 31.5
attr attacker 1
attr beaconInterval 0.1
attr configname SinusoidalJammingDetail
attr controller 2
attr datetime 20170803-16:31:18
attr experiment SinusoidalJammingDetail
attr fakeAcc "(1 == 4)"
attr fakePos "(1 == 2)"
attr fakeSpeed "(1 == 3)"
attr inifile omnetpp_1158.ini
attr iterationvars "$leaderSpeed=150, $controller=2, $CACCSpacing=5, $sController=\"PLOEG\", $attacker=1, $attackStart=31.5, $attackSpeed=150, $attackPos=7, $attackAcc=-30, $0=5, $1=0.5, $nCars=8, $platoonSize=8, $nLanes=1, $beaconInterval=0.1, $priority=2, $packetSize=200, $ploegH=0.5, $leaderHeadway=1.2, $fakeSpeed=(1 == 3), $fakeAcc=(1 == 4), $fakePos=(1 == 2)"
attr iterationvarsf leaderSpeed=150,controller=2,CACCSpacing=5,sController=PLOEG,attacker=1,attackStart=31.5,attackSpeed=150,attackPos=7,attackAcc=-30,5,0.5,nCars=8,platoonSize=8,nLanes=1,beaconInterval=0.1,priority=2,packetSize=200,ploegH=0.5,leaderHeadway=1.2,fakeSpeed=(1_==_3),fakeAcc=(1_==_4),fakePos=(1_==_2)-
attr leaderHeadway 1.2
attr leaderSpeed 150
attr measurement "$leaderSpeed=150, $controller=2, $CACCSpacing=5, $sController=\"PLOEG\", $attacker=1, $attackStart=31.5, $attackSpeed=150, $attackPos=7, $attackAcc=-30, $0=5, $1=0.5, $nCars=8, $platoonSize=8, $nLanes=1, $beaconInterval=0.1, $priority=2, $packetSize=200, $ploegH=0.5, $leaderHeadway=1.2, $fakeSpeed=(1 == 3), $fakeAcc=(1 == 4), $fakePos=(1 == 2)"
attr nCars 8
attr nLanes 1
attr network scenario
attr packetSize 200
attr platoonSize 8
attr ploegH 0.5
attr priority 2
attr processid 35694
attr repetition 3
attr replication #3
attr resultdir results
attr runnumber 1158
attr sController "\"PLOEG\""
attr seedset 3
param **.coreDebug false
param **.debug false
param **.headway 0.1s
param **.numberOfCars 8
param **.numberOfCarsPerPlatoon 8
param **.numberOfLanes 1
param **.numericController 2
param **.traffic.nCars 8
param **.traffic.nLanes 1
param **.traffic.platoonInsertDistance 5m
param **.traffic.platoonInsertHeadway 0.5s
param **.traffic.platoonInsertSpeed 150kmph
param **.traffic.platoonInsertTime "1 s"
param **.traffic.platoonLeaderHeadway 1.2s
param **.traffic.platoonSize 8
param **.traffic.platooningVType "\"vtypeauto\""
param **.traffic_type "\"PlatoonsTrafficManager\""
param *.**.nic.mac1609_4.bitrate 6Mbps
param *.**.nic.mac1609_4.txPower 100mW
param *.**.nic.mac1609_4.useServiceChannel false
param *.**.nic.phy80211p.analogueModels "xmldoc(\"config.xml\")"
param *.**.nic.phy80211p.decider "xmldoc(\"config.xml\")"
param *.**.nic.phy80211p.maxTXPower 100mW
param *.**.nic.phy80211p.sensitivity -94dBm
param *.**.nic.phy80211p.thermalNoise -95dBm
param *.**.nic.phy80211p.usePropagationDelay true
param *.**.nic.phy80211p.useThermalNoise true
param *.annotations.draw false
param *.connectionManager.alpha 2.0
param *.connectionManager.carrierFrequency "5.890e9 Hz"
param *.connectionManager.pMax 100mW
param *.connectionManager.sat -94dBm
param *.connectionManager.sendDirect true
param *.manager.autoShutdown true
param *.manager.commandLine "\"sumo --remote-port $port --seed $seed --configuration-file $configFile\""
param *.manager.configFile "\"./sumocfg/freeway.sumo.cfg\""
param *.manager.host "\"localhost\""
param *.manager.margin 25
param *.manager.moduleDisplayString "\"\""
param *.manager.moduleName "\"node\""
param *.manager.moduleType "\"Car\""
param *.manager.updateInterval 0.01s
param *.node[*].appl.attackStart 31.5s
param *.node[*].appl.attackerType 1
param *.node[*].appl.simulationDuration "60 s"
param *.node[*].appl_type "\"SimplePlatooningApp\""
param *.node[*].helper.nCars 8
param *.node[*].helper.nLanes 1
param *.node[*].helper.platoonSize 8
param *.node[*].helper_type "\"PositionHelper\""
param *.node[*].mobility.x 0
param *.node[*].mobility.y 0
param *.node[*].mobility.z 1.895
param *.node[*].prot.attackStart 31.5s
param *.node[*].prot.attackerType 1
param *.node[*].prot.attackingNode 3
param *.node[*].prot.beaconingInterval 0.1s
param *.node[*].prot.fakeAcc "(1 == 4)"
param *.node[*].prot.fakePos "(1 == 2)"
param *.node[*].prot.fakeSpeed "(1 == 3)"
param *.node[*].prot.maliciousAcc "-30 mpss"
param *.node[*].prot.maliciousSpeed 150kmph
param *.node[*].prot.packetSize 200
param *.node[*].prot.priority 2
param *.node[*].prot.shiftX "7 m"
param *.node[*].prot.useControllerAcceleration true
param *.node[*].protocol_type "\"SimplePlatooningBeaconing\""
param *.node[*].scenario.accHeadway 0.1s
param *.node[*].scenario.caccC1 0.5
param *.node[*].scenario.caccOmegaN "0.2 Hz"
param *.node[*].scenario.caccSpacing 5m
param *.node[*].scenario.caccXi 1
param *.node[*].scenario.controller "\"PLOEG\""
param *.node[*].scenario.engineTau "0.5 s"
param *.node[*].scenario.leaderHeadway 1.2s
param *.node[*].scenario.leaderOscillationFrequency "0.2 Hz"
param *.node[*].scenario.leaderSpeed 150kmph
param *.node[*].scenario.oscillationAmplitude "10 kmph"
param *.node[*].scenario.ploegH 0.5s
param *.node[*].scenario.ploegKd 0.7
param *.node[*].scenario.ploegKp 0.2
param *.node[*].scenario.startOscillating "5 s"
param *.node[*].scenario.useRealisticEngine false
param *.node[*].scenario_type "\"SinusoidalScenario\""
param *.node[*].unicast.packetLossRate 0
param *.obstacles.debug false
param *.playgroundSizeX 65000m
param *.playgroundSizeY 25000m
param *.playgroundSizeZ 50m
param *.world.use2D false
param *.world.useTorus false

vector 0  scenario.node[0].appl  distance  ETV
vector 1  scenario.node[0].appl  relativeSpeed  ETV
vector 2  scenario.node[0].appl  nodeId  ETV
vector 6  scenario.node[0].appl  acceleration  ETV
vector 7  scenario.node[0].appl  controllerAcceleration  ETV
vector 3  scenario.node[0].appl  speed  ETV
vector 4  scenario.node[0].appl  posx  ETV
vector 5  scenario.node[0].appl  posy  ETV
vector 22  scenario.node[1].appl  distance  ETV
vector 23  scenario.node[1].appl  relativeSpeed  ETV
vector 24  scenario.node[1].appl  nodeId  ETV
vector 28  scenario.node[1].appl  acceleration  ETV
vector 29  scenario.node[1].appl  controllerAcceleration  ETV
vector 25  scenario.node[1].appl  speed  ETV
vector 26  scenario.node[1].appl  posx  ETV
vector 27  scenario.node[1].appl  posy  ETV
vector 44  scenario.node[2].appl  distance  ETV
vector 45  scenario.node[2].appl  relativeSpeed  ETV
vector 46  scenario.node[2].appl  nodeId  ETV
vector 50  scenario.node[2].appl  acceleration  ETV
vector 51  scenario.node[2].appl  controllerAcceleration  ETV
vector 47  scenario.node[2].appl  speed  ETV
vector 48  scenario.node[2].appl  posx  ETV
vector 49  scenario.node[2].appl  posy  ETV
vector 66  scenario.node[3].appl  distance  ETV
vector 67  scenario.node[3].appl  relativeSpeed  ETV
vector 68  scenario.node[3].appl  nodeId  ETV
vector 72  scenario.node[3].appl  acceleration  ETV
vector 73  scenario.node[3].appl  controllerAcceleration  ETV
vector 69  scenario.node[3].appl  speed  ETV
vector 70  scenario.node[3].appl  posx  ETV
vector 71  scenario.node[3].appl  posy  ETV
vector 88  scenario.node[4].appl  distance  ETV
vector 89  scenario.node[4].appl  relativeSpeed  ETV
vector 90  scenario.node[4].appl  nodeId  ETV
vector 94  scenario.node[4].appl  acceleration  ETV
vector 95  scenario.node[4].appl  controllerAcceleration  ETV
vector 91  scenario.node[4].appl  speed  ETV
vector 92  scenario.node[4].appl  posx  ETV
vector 93  scenario.node[4].appl  posy  ETV
vector 110  scenario.node[5].appl  distance  ETV
vector 111  scenario.node[5].appl  relativeSpeed  ETV
vector 112  scenario.node[5].appl  nodeId  ETV
vector 116  scenario.node[5].appl  acceleration  ETV
vector 117  scenario.node[5].appl  controllerAcceleration  ETV
vector 113  scenario.node[5].appl  speed  ETV
vector 114  scenario.node[5].appl  posx  ETV
vector 115  scenario.node[5].appl  posy  ETV
vector 132  scenario.node[6].appl  distance  ETV
vector 133  scenario.node[6].appl  relativeSpeed  ETV
vector 134  scenario.node[6].appl  nodeId  ETV
vector 138  scenario.node[6].appl  acceleration  ETV
vector 139  scenario.node[6].appl  controllerAcceleration  ETV
vector 135  scenario.node[6].appl  speed  ETV
vector 136  scenario.node[6].appl  posx  ETV
vector 137  scenario.node[6].appl  posy  ETV
vector 154  scenario.node[7].appl  distance  ETV
vector 155  scenario.node[7].appl  relativeSpeed  ETV
vector 156  scenario.node[7].appl  nodeId  ETV
vector 160  scenario.node[7].appl  acceleration  ETV
vector 161  scenario.node[7].appl  controllerAcceleration  ETV
vector 157  scenario.node[7].appl  speed  ETV
vector 158  scenario.node[7].appl  posx  ETV
vector 159  scenario.node[7].appl  posy  ETV
vector 35  scenario.node[1].prot  leaderDelay  ETV
vector 33  scenario.node[1].prot  leaderDelayId  ETV
vector 36  scenario.node[1].prot  frontDelay  ETV
vector 34  scenario.node[1].prot  frontDelayId  ETV
vector 57  scenario.node[2].prot  leaderDelay  ETV
vector 55  scenario.node[2].prot  leaderDelayId  ETV
vector 79  scenario.node[3].prot  leaderDelay  ETV
vector 77  scenario.node[3].prot  leaderDelayId  ETV
vector 101  scenario.node[4].prot  leaderDelay  ETV
vector 99  scenario.node[4].prot  leaderDelayId  ETV
vector 123  scenario.node[5].prot  leaderDelay  ETV
vector 121  scenario.node[5].prot  leaderDelayId  ETV
vector 145  scenario.node[6].prot  leaderDelay  ETV
vector 143  scenario.node[6].prot  leaderDelayId  ETV
vector 167  scenario.node[7].prot  leaderDelay  ETV
vector 165  scenario.node[7].prot  leaderDelayId  ETV
vector 168  scenario.node[7].prot  frontDelay  ETV
vector 166  scenario.node[7].prot  frontDelayId  ETV
vector 58  scenario.node[2].prot  frontDelay  ETV
vector 56  scenario.node[2].prot  frontDelayId  ETV
vector 124  scenario.node[5].prot  frontDelay  ETV
vector 122  scenario.node[5].prot  frontDelayId  ETV
vector 80  scenario.node[3].prot  frontDelay  ETV
vector 78  scenario.node[3].prot  frontDelayId  ETV
vector 146  scenario.node[6].prot  frontDelay  ETV
vector 144  scenario.node[6].prot  frontDelayId  ETV
vector 102  scenario.node[4].prot  frontDelay  ETV
vector 100  scenario.node[4].prot  frontDelayId  ETV
vector 8  scenario.node[0].prot  nodeId  ETV
vector 9  scenario.node[0].prot  busyTime  ETV
vector 10  scenario.node[0].prot  collisions  ETV
vector 30  scenario.node[1].prot  nodeId  ETV
vector 31  scenario.node[1].prot  busyTime  ETV
vector 32  scenario.node[1].prot  collisions  ETV
vector 52  scenario.node[2].prot  nodeId  ETV
vector 53  scenario.node[2].prot  busyTime  ETV
vector 54  scenario.node[2].prot  collisions  ETV
vector 74  scenario.node[3].prot  nodeId  ETV
vector 75  scenario.node[3].prot  busyTime  ETV
vector 76  scenario.node[3].prot  collisions  ETV
vector 96  scenario.node[4].prot  nodeId  ETV
vector 97  scenario.node[4].prot  busyTime  ETV
vector 98  scenario.node[4].prot  collisions  ETV
vector 118  scenario.node[5].prot  nodeId  ETV
vector 119  scenario.node[5].prot  busyTime  ETV
vector 120  scenario.node[5].prot  collisions  ETV
vector 140  scenario.node[6].prot  nodeId  ETV
vector 141  scenario.node[6].prot  busyTime  ETV
vector 142  scenario.node[6].prot  collisions  ETV
vector 162  scenario.node[7].prot  nodeId  ETV
vector 163  scenario.node[7].prot  busyTime  ETV
vector 164  scenario.node[7].prot  collisions  ETV
7	11260 13862 232 328174 1.11 59.91 589 -1.5 1.5 -14.445978168666 993.24092374633
6	25122 18591 232 328174 1.11 59.91 589 -1.4722746794739 1.4513434175775 -12.507273387293 675.29835233824
5	43713 12081 232 328174 1.11 59.91 589 36.55 36.55 21527.95 786846.5725
4	55794 17907 232 328174 1.11 59.91 589 252.34595756491 2706.6620901518 872247.63925166 1587933935.6337
3	73701 17882 232 328174 1.11 59.91 589 40.376854748618 43.631381416411 24584.394369227 1026576.1694128
1	91583 9725 232 328174 1.11 59.91 589 0 0 0 0
0	101308 10314 232 328174 1.11 59.91 589 -1 -1 -589 589
2	111622 9725 232 328174 1.11 59.91 589 0 0 0 0
10	121347 858 5056 328550 2 60 59 0 0 0 0
9	122205 1553 5056 328550 2 60 59 0.022764311362 0.026260188837 1.545265431311 0.040483899534561
8	123758 799 5056 328550 2 60 59 0 0 0 0
29	124557 18962 233 328175 1.11 59.91 589 -1.5826816889172 1.5 4.5267239973055 535.10952630519
28	143519 19237 233 328175 1.11 59.91 589 -1.5019379908779 1.4447958314321 6.2331888469849 388.05842970715
27	162756 12670 233 328175 1.11 59.91 589 36.55 36.55 21527.95 786846.5725
26	175426 18507 233 328175 1.11 59.91 589 222.51262931824 2687.2173612938 858152.30873535 1549465991.7167
25	193933 18501 233 328175 1.11 59.91 589 40.559722470169 44.23484452157 24688.93463785 1035263.6058479
23	212434 19306 233 328175 1.11 59.91 589 -3.5860558866842 1.8966878762305 -104.41519588897 670.13375001929
22	231740 18484 233 328175 1.11 59.91 589 13.808838743589 25.833328246847 11741.421321683 243210.03651986
24	250224 10314 233 328175 1.11 59.91 589 1 1 589 589
36	260538 23692 836 328222 1.269559686859 59.969562887648 588 0.099987270955 0.100000587347 58.800003788135 5.8800007600947
35	284230 23692 836 328222 1.269559686859 59.969562887648 588 0.099987270955 0.100000587347 58.800003788135 5.8800007600947
34	307922 16115 836 328222 1.269559686859 59.969562887648 588 1 1 588 588
33	324037 16115 836 328222 1.269559686859 59.969562887648 588 1 1 588 588
32	340152 858 5057 328551 2 60 59 0 0 0 0
31	341010 1620 5057 328551 2 60 59 0.022764410787 0.026260184214 1.545265495672 0.040483902219837
30	342630 858 5057 328551 2 60 59 1 1 59 59
51	343488 19238 234 328176 1.11 59.91 589 -1.5972532734212 1.4971862022366 6.6874399706068 426.95125765393
50	362726 19287 234 328176 1.11 59.91 589 -1.465650373374 1.4079856234325 5.9033744101292 314.30236746574
49	382013 12670 234 328176 1.11 59.91 589 36.55 36.55 21527.95 786846.5725
48	394683 18490 234 328176 1.11 59.91 589 192.67928581238 2660.0653471028 842151.44438056 1503608531.4284
47	413173 18490 234 328176 1.11 59.91 589 40.704055089383 44.150624600882 24715.732639462 1037498.4634495
45	431663 19498 234 328176 1.11 59.91 589 -0.76825511691323 0.70920223517636 -26.860333500452 92.80015441327
44	451161 18504 234 328176 1.11 59.91 589 22.318737780615 25.833681240509 13645.400314824 316490.29936425
46	469665 10314 234 328176 1.11 59.91 589 2 2 1178 2356
58	479979 23697 1046 328432 1.299191980532 59.999195053674 588 0.099987279009 0.100000587348 58.800003660489 5.8800007345624
57	503676 23698 842 328228 1.269559786373 59.969562978223 588 0.099987270989 0.100000587346 58.800003779196 5.8800007583069
56	527374 16113 1046 328432 1.299191980532 59.999195053674 588 2 2 1176 2352
55	543487 16115 842 328228 1.269559786373 59.969562978223 588 2 2 1176 2352
54	559602 858 5058 328552 2 60 59 0 0 0 0
53	560460 1618 5058 328552 2 60 59 0.02276451029 0.026260184966 1.545265586249 0.040483906281413
52	562078 858 5058 328552 2 60 59 2 2 118 236
73	562936 19247 235 328177 1.11 59.91 589 -1.559374092995 1.4729391721133 6.0935902326103 357.72571696862
72	582183 19302 235 328177 1.11 59.91 589 -1.4109972624908 1.3683155049598 3.5810992326581 265.63898889086
71	601485 12670 235 328177 1.11 59.91 589 36.55 36.55 21527.95 786846.5725
70	614155 18488 235 328177 1.11 59.91 589 162.84595756531 2633.0156602146 826136.44936068 1458613637.728
69	632643 18480 235 328177 1.11 59.91 589 40.810512632534 44.086860581956 24743.485209606 1039851.2116147
67	651123 19519 235 328177 1.11 59.91 589 -0.73136914694791 0.69619698079845 -27.811603888184 79.335755119779
66	670642 18482 235 328177 1.11 59.91 589 22.369953863707 25.834691885872 13659.550071277 317171.71243724
68	689124 10314 235 328177 1.11 59.91 589 3 3 1767 5301
80	699438 23699 1180 328569 1.300213478099 60.00020350404 588 0.099987283544 0.100000587347 58.799990613288 5.8799981252826
79	723137 23687 848 328234 1.269559885886 59.96956306849 588 0.099987270945 0.100000587347 58.80000376995 5.8800007564577
78	746824 16124 1180 328569 1.300213478099 60.00020350404 588 3 3 1764 5292
77	762948 16103 848 328234 1.269559885886 59.96956306849 588 3 3 1764 5292
76	779051 858 5059 328553 2 60 59 0 0 0 0
75	779909 1621 5059 328553 2 60 59 0.022763410772 0.026260183886 1.54526449596 0.040483856707153
74	781530 858 5059 328553 2 60 59 3 3 177 531
95	782388 19267 236 328178 1.11 59.91 589 -1.4800502639545 1.4210591315647 3.4394869253197 300.93149611064
94	801655 19383 236 328178 1.11 59.91 589 -1.3352581973599 1.3123231673191 0.49358117420297 225.97308375042
93	821038 12670 236 328178 1.11 59.91 589 36.55 36.55 21527.95 786846.5725
92	833708 18500 236 328178 1.11 59.91 589 133.01262168884 2606.133980832 810106.97428593 1414479443.1261
91	852208 18490 236 328178 1.11 59.91 589 40.909225955357 44.108031837556 24772.893097555 1042366.9125291
89	870698 19521 236 328178 1.11 59.91 589 -0.67548333106556 0.66186526553944 -29.44369894133 63.949132041052
88	890219 18499 236 328178 1.11 59.91 589 22.429498909408 25.83347117622 13674.06323251 317866.5207385
90	908718 10314 236 328178 1.11 59.91 589 4 4 2356 9424
102	919032 24280 1312 328701 1.306018975666 60.006060951841 588 0.099909273487 0.100091575633 58.799977563522 5.8799966433824
101	943312 24259 854 328240 1.269559985399 59.969563158209 588 0.099987270853 0.100000587347 58.800003760156 5.8800007544989
100	967571 16714 1312 328701 1.306018975666 60.006060951841 588 4 4 2352 9408
99	984285 16093 854 328240 1.269559985399 59.969563158209 588 4 4 2352 9408
98	1000378 858 5060 328554 2 60 59 0 0 0 0
97	1001236 1623 5060 328554 2 60 59 0.022764311258 0.02626018295 1.54526540621 0.04048389821675
96	1002859 858 5060 328554 2 60 59 4 4 236 944
117	1003717 19931 237 328179 1.11 59.91 589 -1.3879125929544 1.3606441677421 0.17335735278534 257.06179404237
116	1023648 19972 237 328179 1.11 59.91 589 -1.2568320447606 1.2532919450329 -2.088263466085 196.87741423574
115	1043620 13259 237 328179 1.11 59.91 589 36.55 36.55 21527.95 786846.5725
114	1056879 19091 237 328179 1.11 59.91 589 103.17929344177 2579.3949529961 794062.53212866 1371203732.6755
113	1075970 19079 237 328179 1.11 59.91 589 40.997081772912 44.617299593334 24803.746814375 1045026.2376625
111	1095049 20167 237 328179 1.11 59.91 589 -0.62546756217259 0.63158900874286 -30.858652631388 53.086081395183
110	1115216 19084 237 328179 1.11 59.91 589 22.476479127909 25.83332824707 13689.059231604 318585.2781194
112	1134300 10903 237 328179 1.11 59.91 589 5 5 2945 14725
124	1145203 24272 1112 328492 1.299592279072 59.999595322973 588 0.09998727172 0.100000587347 58.800003631248 5.8800007287195
123	1169475 24277 860 328246 1.269560084912 59.969563247444 588 0.099987270757 0.100000587347 58.800003749878 5.8800007524433
122	1193752 16693 1112 328492 1.299592279072 59.999595322973 588 5 5 2940 14700
121	1210445 16705 860 328246 1.269560084912 59.969563247444 588 5 5 2940 14700
120	1227150 917 5061 328555 2 60 59 0 0 0 0
119	1228067 1675 5061 328555 2 60 59 0.022763211749 0.026260182452 1.545264316949 0.040483848696728
118	1229742 917 5061 328555 2 60 59 5 5 295 1475
139	1230659 19944 238 328180 1.11 59.91 589 -1.2986299109729 1.3037505338555 -2.4537825091373 225.3533461268
138	1250603 20000 238 328180 1.11 59.91 589 -1.1822496421978 1.2204063301908 -3.3704598128942 176.7269876731
137	1270603 13259 238 328180 1.11 59.91 589 36.55 36.55 21527.95 786846.5725
136	1283862 19088 238 328180 1.11 59.91 589 73.345957565308 2552.7336627206 778001.98365478 1328785433.7496
135	1302950 19092 238 328180 1.11 59.91 589 41.075526995038 45.081026727351 24835.424409569 1047773.8630633
133	1322042 20197 238 328180 1.11 59.91 589 -0.58119892391274 0.60169582696832 -31.656712560051 44.753476403684
132	1342239 19068 238 328180 1.11 59.91 589 22.518157435595 25.834553100318 13705.182025793 319359.98950943
134	1361307 10903 238 328180 1.11 59.91 589 6 6 3534 21204
146	1372210 24293 1249 328638 1.305605776639 60.005608772023 588 0.099987273208 0.100000587347 58.800003582731 5.8800007190162
145	1396503 24276 866 328252 1.269560184426 59.969563336397 588 0.099987270686 0.100000587346 58.800003739317 5.8800007503311
144	1420779 16715 1249 328638 1.305605776639 60.005608772023 588 6 6 3528 21168
143	1437494 16696 866 328252 1.269560184426 59.969563336397 588 6 6 3528 21168
142	1454190 917 5062 328556 2 60 59 0 0 0 0
141	1455107 1677 5062 328556 2 60 59 0.022764112233 0.026260182468 1.545265227982 0.040483890247073
140	1456784 917 5062 328556 2 60 59 6 6 354 2124
161	1457701 19988 239 328181 1.11 59.91 589 -1.2117973566689 1.3422888579947 -3.6288423469037 202.11948629693
160	1477689 19995 239 328181 1.11 59.91 589 -1.1117341737112 1.270469244669 -3.1916892180632 162.63082652335
159	1497684 13259 239 328181 1.11 59.91 589 36.55 36.55 21527.95 786846.5725
158	1510943 19078 239 328181 1.11 59.91 589 43.512624549866 2526.0727285675 761925.80981408 1287226237.056
157	1530021 19096 239 328181 1.11 59.91 589 41.144875644463 45.495853002798 24867.156701989 1050541.8617014
155	1549117 20200 239 328181 1.11 59.91 589 -0.55589641909743 0.57233486118549 -31.69858782171 38.149969318496
154	1569317 19084 239 328181 1.11 59.91 589 22.555288739038 25.833333015442 13720.808486541 320110.08599836
156	1588401 10903 239 328181 1.11 59.91 589 7 7 4123 28861
168	1599304 24288 980 328360 1.292109482965 59.99209960318 588 0.099987276978 0.100000587346 58.799990707561 5.8799981441363
167	1623592 24314 872 328258 1.269560283939 59.969563425325 588 0.099987270655 0.100000587347 58.800003728732 5.8800007482142
166	1647906 16709 980 328360 1.292109482965 59.99209960318 588 7 7 4116 28812
165	1664615 16726 872 328258 1.269560283939 59.969563425325 588 7 7 4116 28812
164	1681341 917 5063 328557 2 60 59 0 0 0 0
163	1682258 1676 5063 328557 2 60 59 0.022764012722 0.02626018288 1.545265139055 0.040483886272127
162	1683934 917 5063 328557 2 60 59 7 7 413 2891
