file 1685207 1501600789                                         
version 2
run SinusoidalJammingDetail-355-20170801-17:19:17-25933
attr CACCSpacing 7
attr attackAcc -30
attr attackPos 7
attr attackSpeed 150
attr attackStart 32.5
attr attacker 1
attr beaconInterval 0.1
attr configname SinusoidalJammingDetail
attr controller 1
attr datetime 20170801-17:19:17
attr experiment SinusoidalJammingDetail
attr fakeAcc "(1 == 4)"
attr fakePos "(1 == 2)"
attr fakeSpeed "(1 == 3)"
attr inifile omnetpp_355.ini
attr iterationvars "$leaderSpeed=100, $controller=1, $CACCSpacing=7, $sController=\"CACC\", $attacker=1, $attackStart=32.5, $attackSpeed=150, $attackPos=7, $attackAcc=-30, $0=7, $1=0, $nCars=8, $platoonSize=8, $nLanes=1, $beaconInterval=0.1, $priority=2, $packetSize=200, $ploegH=0.5, $leaderHeadway=1.2, $fakeSpeed=(1 == 3), $fakeAcc=(1 == 4), $fakePos=(1 == 2)"
attr iterationvarsf leaderSpeed=100,controller=1,CACCSpacing=7,sController=CACC,attacker=1,attackStart=32.5,attackSpeed=150,attackPos=7,attackAcc=-30,7,0,nCars=8,platoonSize=8,nLanes=1,beaconInterval=0.1,priority=2,packetSize=200,ploegH=0.5,leaderHeadway=1.2,fakeSpeed=(1_==_3),fakeAcc=(1_==_4),fakePos=(1_==_2)-
attr leaderHeadway 1.2
attr leaderSpeed 100
attr measurement "$leaderSpeed=100, $controller=1, $CACCSpacing=7, $sController=\"CACC\", $attacker=1, $attackStart=32.5, $attackSpeed=150, $attackPos=7, $attackAcc=-30, $0=7, $1=0, $nCars=8, $platoonSize=8, $nLanes=1, $beaconInterval=0.1, $priority=2, $packetSize=200, $ploegH=0.5, $leaderHeadway=1.2, $fakeSpeed=(1 == 3), $fakeAcc=(1 == 4), $fakePos=(1 == 2)"
attr nCars 8
attr nLanes 1
attr network scenario
attr packetSize 200
attr platoonSize 8
attr ploegH 0.5
attr priority 2
attr processid 25933
attr repetition 0
attr replication #0
attr resultdir results
attr runnumber 355
attr sController "\"CACC\""
attr seedset 0
param **.coreDebug false
param **.debug false
param **.headway 0.1s
param **.numberOfCars 8
param **.numberOfCarsPerPlatoon 8
param **.numberOfLanes 1
param **.numericController 1
param **.traffic.nCars 8
param **.traffic.nLanes 1
param **.traffic.platoonInsertDistance 7m
param **.traffic.platoonInsertHeadway 0s
param **.traffic.platoonInsertSpeed 100kmph
param **.traffic.platoonInsertTime "1 s"
param **.traffic.platoonLeaderHeadway 1.2s
param **.traffic.platoonSize 8
param **.traffic.platooningVType "\"vtypeauto\""
param **.traffic_type "\"PlatoonsTrafficManager\""
param *.**.nic.mac1609_4.bitrate 6Mbps
param *.**.nic.mac1609_4.txPower 100mW
param *.**.nic.mac1609_4.useServiceChannel false
param *.**.nic.phy80211p.analogueModels "xmldoc(\"config.xml\")"
param *.**.nic.phy80211p.decider "xmldoc(\"config.xml\")"
param *.**.nic.phy80211p.maxTXPower 100mW
param *.**.nic.phy80211p.sensitivity -94dBm
param *.**.nic.phy80211p.thermalNoise -95dBm
param *.**.nic.phy80211p.usePropagationDelay true
param *.**.nic.phy80211p.useThermalNoise true
param *.annotations.draw false
param *.connectionManager.alpha 2.0
param *.connectionManager.carrierFrequency "5.890e9 Hz"
param *.connectionManager.pMax 100mW
param *.connectionManager.sat -94dBm
param *.connectionManager.sendDirect true
param *.manager.autoShutdown true
param *.manager.commandLine "\"sumo --remote-port $port --seed $seed --configuration-file $configFile\""
param *.manager.configFile "\"./sumocfg/freeway.sumo.cfg\""
param *.manager.host "\"localhost\""
param *.manager.margin 25
param *.manager.moduleDisplayString "\"\""
param *.manager.moduleName "\"node\""
param *.manager.moduleType "\"Car\""
param *.manager.updateInterval 0.01s
param *.node[*].appl.attackStart 32.5s
param *.node[*].appl.attackerType 1
param *.node[*].appl.simulationDuration "60 s"
param *.node[*].appl_type "\"SimplePlatooningApp\""
param *.node[*].helper.nCars 8
param *.node[*].helper.nLanes 1
param *.node[*].helper.platoonSize 8
param *.node[*].helper_type "\"PositionHelper\""
param *.node[*].mobility.x 0
param *.node[*].mobility.y 0
param *.node[*].mobility.z 1.895
param *.node[*].prot.attackStart 32.5s
param *.node[*].prot.attackerType 1
param *.node[*].prot.attackingNode 3
param *.node[*].prot.beaconingInterval 0.1s
param *.node[*].prot.fakeAcc "(1 == 4)"
param *.node[*].prot.fakePos "(1 == 2)"
param *.node[*].prot.fakeSpeed "(1 == 3)"
param *.node[*].prot.maliciousAcc "-30 mpss"
param *.node[*].prot.maliciousSpeed 150kmph
param *.node[*].prot.packetSize 200
param *.node[*].prot.priority 2
param *.node[*].prot.shiftX "7 m"
param *.node[*].prot.useControllerAcceleration true
param *.node[*].protocol_type "\"SimplePlatooningBeaconing\""
param *.node[*].scenario.accHeadway 0.1s
param *.node[*].scenario.caccC1 0.5
param *.node[*].scenario.caccOmegaN "0.2 Hz"
param *.node[*].scenario.caccSpacing 7m
param *.node[*].scenario.caccXi 1
param *.node[*].scenario.controller "\"CACC\""
param *.node[*].scenario.engineTau "0.5 s"
param *.node[*].scenario.leaderHeadway 1.2s
param *.node[*].scenario.leaderOscillationFrequency "0.2 Hz"
param *.node[*].scenario.leaderSpeed 100kmph
param *.node[*].scenario.oscillationAmplitude "10 kmph"
param *.node[*].scenario.ploegH 0.5s
param *.node[*].scenario.ploegKd 0.7
param *.node[*].scenario.ploegKp 0.2
param *.node[*].scenario.startOscillating "5 s"
param *.node[*].scenario.useRealisticEngine false
param *.node[*].scenario_type "\"SinusoidalScenario\""
param *.node[*].unicast.packetLossRate 0
param *.obstacles.debug false
param *.playgroundSizeX 65000m
param *.playgroundSizeY 25000m
param *.playgroundSizeZ 50m
param *.world.use2D false
param *.world.useTorus false

vector 0  scenario.node[0].appl  distance  ETV
vector 1  scenario.node[0].appl  relativeSpeed  ETV
vector 2  scenario.node[0].appl  nodeId  ETV
vector 6  scenario.node[0].appl  acceleration  ETV
vector 7  scenario.node[0].appl  controllerAcceleration  ETV
vector 3  scenario.node[0].appl  speed  ETV
vector 4  scenario.node[0].appl  posx  ETV
vector 5  scenario.node[0].appl  posy  ETV
vector 22  scenario.node[1].appl  distance  ETV
vector 23  scenario.node[1].appl  relativeSpeed  ETV
vector 24  scenario.node[1].appl  nodeId  ETV
vector 28  scenario.node[1].appl  acceleration  ETV
vector 29  scenario.node[1].appl  controllerAcceleration  ETV
vector 25  scenario.node[1].appl  speed  ETV
vector 26  scenario.node[1].appl  posx  ETV
vector 27  scenario.node[1].appl  posy  ETV
vector 44  scenario.node[2].appl  distance  ETV
vector 45  scenario.node[2].appl  relativeSpeed  ETV
vector 46  scenario.node[2].appl  nodeId  ETV
vector 50  scenario.node[2].appl  acceleration  ETV
vector 51  scenario.node[2].appl  controllerAcceleration  ETV
vector 47  scenario.node[2].appl  speed  ETV
vector 48  scenario.node[2].appl  posx  ETV
vector 49  scenario.node[2].appl  posy  ETV
vector 66  scenario.node[3].appl  distance  ETV
vector 67  scenario.node[3].appl  relativeSpeed  ETV
vector 68  scenario.node[3].appl  nodeId  ETV
vector 72  scenario.node[3].appl  acceleration  ETV
vector 73  scenario.node[3].appl  controllerAcceleration  ETV
vector 69  scenario.node[3].appl  speed  ETV
vector 70  scenario.node[3].appl  posx  ETV
vector 71  scenario.node[3].appl  posy  ETV
vector 88  scenario.node[4].appl  distance  ETV
vector 89  scenario.node[4].appl  relativeSpeed  ETV
vector 90  scenario.node[4].appl  nodeId  ETV
vector 94  scenario.node[4].appl  acceleration  ETV
vector 95  scenario.node[4].appl  controllerAcceleration  ETV
vector 91  scenario.node[4].appl  speed  ETV
vector 92  scenario.node[4].appl  posx  ETV
vector 93  scenario.node[4].appl  posy  ETV
vector 110  scenario.node[5].appl  distance  ETV
vector 111  scenario.node[5].appl  relativeSpeed  ETV
vector 112  scenario.node[5].appl  nodeId  ETV
vector 116  scenario.node[5].appl  acceleration  ETV
vector 117  scenario.node[5].appl  controllerAcceleration  ETV
vector 113  scenario.node[5].appl  speed  ETV
vector 114  scenario.node[5].appl  posx  ETV
vector 115  scenario.node[5].appl  posy  ETV
vector 132  scenario.node[6].appl  distance  ETV
vector 133  scenario.node[6].appl  relativeSpeed  ETV
vector 134  scenario.node[6].appl  nodeId  ETV
vector 138  scenario.node[6].appl  acceleration  ETV
vector 139  scenario.node[6].appl  controllerAcceleration  ETV
vector 135  scenario.node[6].appl  speed  ETV
vector 136  scenario.node[6].appl  posx  ETV
vector 137  scenario.node[6].appl  posy  ETV
vector 154  scenario.node[7].appl  distance  ETV
vector 155  scenario.node[7].appl  relativeSpeed  ETV
vector 156  scenario.node[7].appl  nodeId  ETV
vector 160  scenario.node[7].appl  acceleration  ETV
vector 161  scenario.node[7].appl  controllerAcceleration  ETV
vector 157  scenario.node[7].appl  speed  ETV
vector 158  scenario.node[7].appl  posx  ETV
vector 159  scenario.node[7].appl  posy  ETV
vector 80  scenario.node[3].prot  frontDelay  ETV
vector 78  scenario.node[3].prot  frontDelayId  ETV
vector 58  scenario.node[2].prot  frontDelay  ETV
vector 56  scenario.node[2].prot  frontDelayId  ETV
vector 168  scenario.node[7].prot  frontDelay  ETV
vector 166  scenario.node[7].prot  frontDelayId  ETV
vector 35  scenario.node[1].prot  leaderDelay  ETV
vector 33  scenario.node[1].prot  leaderDelayId  ETV
vector 36  scenario.node[1].prot  frontDelay  ETV
vector 34  scenario.node[1].prot  frontDelayId  ETV
vector 57  scenario.node[2].prot  leaderDelay  ETV
vector 55  scenario.node[2].prot  leaderDelayId  ETV
vector 79  scenario.node[3].prot  leaderDelay  ETV
vector 77  scenario.node[3].prot  leaderDelayId  ETV
vector 101  scenario.node[4].prot  leaderDelay  ETV
vector 99  scenario.node[4].prot  leaderDelayId  ETV
vector 123  scenario.node[5].prot  leaderDelay  ETV
vector 121  scenario.node[5].prot  leaderDelayId  ETV
vector 145  scenario.node[6].prot  leaderDelay  ETV
vector 143  scenario.node[6].prot  leaderDelayId  ETV
vector 167  scenario.node[7].prot  leaderDelay  ETV
vector 165  scenario.node[7].prot  leaderDelayId  ETV
vector 124  scenario.node[5].prot  frontDelay  ETV
vector 122  scenario.node[5].prot  frontDelayId  ETV
vector 102  scenario.node[4].prot  frontDelay  ETV
vector 100  scenario.node[4].prot  frontDelayId  ETV
vector 146  scenario.node[6].prot  frontDelay  ETV
vector 144  scenario.node[6].prot  frontDelayId  ETV
vector 8  scenario.node[0].prot  nodeId  ETV
vector 9  scenario.node[0].prot  busyTime  ETV
vector 10  scenario.node[0].prot  collisions  ETV
vector 30  scenario.node[1].prot  nodeId  ETV
vector 31  scenario.node[1].prot  busyTime  ETV
vector 32  scenario.node[1].prot  collisions  ETV
vector 52  scenario.node[2].prot  nodeId  ETV
vector 53  scenario.node[2].prot  busyTime  ETV
vector 54  scenario.node[2].prot  collisions  ETV
vector 74  scenario.node[3].prot  nodeId  ETV
vector 75  scenario.node[3].prot  busyTime  ETV
vector 76  scenario.node[3].prot  collisions  ETV
vector 96  scenario.node[4].prot  nodeId  ETV
vector 97  scenario.node[4].prot  busyTime  ETV
vector 98  scenario.node[4].prot  collisions  ETV
vector 118  scenario.node[5].prot  nodeId  ETV
vector 119  scenario.node[5].prot  busyTime  ETV
vector 120  scenario.node[5].prot  collisions  ETV
vector 140  scenario.node[6].prot  nodeId  ETV
vector 141  scenario.node[6].prot  busyTime  ETV
vector 142  scenario.node[6].prot  collisions  ETV
vector 162  scenario.node[7].prot  nodeId  ETV
vector 163  scenario.node[7].prot  busyTime  ETV
vector 164  scenario.node[7].prot  collisions  ETV
7	11244 13860 232 328174 1.11 59.91 589 -1.5 1.5 -14.445974034379 993.24092368185
6	25104 18594 232 328174 1.11 59.91 589 -1.4722746794938 1.4513434175793 -12.50726914995 675.29835222675
5	43698 12081 232 328174 1.11 59.91 589 36.55 36.55 21527.95 786846.5725
4	55779 17898 232 328174 1.11 59.91 589 113.21764297459 1750.867108517 549792.72840376 644985306.27097
3	73677 17905 232 328174 1.11 59.91 589 26.487965859734 29.742492528104 16403.83880962 457295.15275867
1	91582 9725 232 328174 1.11 59.91 589 0 0 0 0
0	101307 10314 232 328174 1.11 59.91 589 -1 -1 -589 589
2	111621 9725 232 328174 1.11 59.91 589 0 0 0 0
10	121346 858 5102 328596 2 60 59 0 0 0 0
9	122204 1154 5102 328596 2 60 59 0.022969 0.02625 1.545469 0.040493199961
8	123358 799 5102 328596 2 60 59 0 0 0 0
29	124157 19461 233 328175 1.11 59.91 589 -1.51297165279 1.51296484251 -0.27309033401758 510.90630069279
28	143618 19502 233 328175 1.11 59.91 589 -1.4840815553274 1.4595456977474 -0.4182086759581 349.7521483833
27	163120 12670 233 328175 1.11 59.91 589 36.55 36.55 21527.95 786846.5725
26	175790 18485 233 328175 1.11 59.91 589 102.21764297485 1730.026976591 541889.28652549 628648412.27997
25	194275 18503 233 328175 1.11 59.91 589 26.483797963405 29.74860430989 16305.856329725 451732.45687535
23	212778 19699 233 328175 1.11 59.91 589 -1.2659990535799 2.1681283907044 98.107552586024 293.51908543426
22	232477 18499 233 328175 1.11 59.91 589 4.8003811659125 17.436470758333 5545.482228675 60422.099735871
24	250976 10314 233 328175 1.11 59.91 589 1 1 589 589
36	261290 23696 1032 328418 1.254911504372 59.954918185496 588 0.099908016148 0.100090571668 58.8000187085 5.8800047799394
35	284986 23696 1032 328418 1.254911504372 59.954918185496 588 0.099908016148 0.100090571668 58.8000187085 5.8800047799394
34	308682 16106 1032 328418 1.254911504372 59.954918185496 588 1 1 588 588
33	324788 16106 1032 328418 1.254911504372 59.954918185496 588 1 1 588 588
32	340894 858 5103 328597 2 60 59 0 0 0 0
31	341752 1213 5103 328597 2 60 59 0.022969 0.02625 1.545469 0.040493199961
30	342965 858 5103 328597 2 60 59 1 1 59 59
51	343823 19402 234 328176 1.11 59.91 589 -1.4952754263723 1.4970992082337 -1.3668302730059 500.21637219441
50	363225 19458 234 328176 1.11 59.91 589 -1.4761121300058 1.4494360548792 -1.5355879678086 348.98052639287
49	382683 12670 234 328176 1.11 59.91 589 36.55 36.55 21527.95 786846.5725
48	395353 18509 234 328176 1.11 59.91 589 91.217642974854 1711.6556630187 534373.62996438 613710789.62258
47	413862 18489 234 328176 1.11 59.91 589 26.440119907266 29.743342827976 16232.104039724 447738.35634928
45	432351 19731 234 328176 1.11 59.91 589 -0.042592453278694 0.47729887664628 73.756472088308 26.315176003156
44	452082 18493 234 328176 1.11 59.91 589 6.9490553517331 14.369074649538 5158.1815153091 49164.579546232
46	470575 10314 234 328176 1.11 59.91 589 2 2 1178 2356
58	480889 23680 900 328280 1.22965810076 59.929664529969 588 0.099999016242 0.100012625029 58.800005456585 5.8800010974553
57	504569 23698 1038 328424 1.254911541064 59.954918246791 588 0.099908016175 0.100090571709 58.800018733103 5.88000478486
56	528267 16115 900 328280 1.22965810076 59.929664529969 588 2 2 1176 2352
55	544382 16106 1038 328424 1.254911541064 59.954918246791 588 2 2 1176 2352
54	560488 858 5104 328598 2 60 59 0 0 0 0
53	561346 1213 5104 328598 2 60 59 0.022969 0.02625 1.545469 0.040493199961
52	562559 858 5104 328598 2 60 59 2 2 118 236
73	563417 19372 235 328177 1.11 59.91 589 -1.4890877726353 1.4891492873218 -2.7565037960056 488.97251932866
72	582789 19439 235 328177 1.11 59.91 589 -1.4634887750208 1.4362599131303 -2.9814312871867 344.88362814076
71	602228 12670 235 328177 1.11 59.91 589 36.55 36.55 21527.95 786846.5725
70	614898 18512 235 328177 1.11 59.91 589 80.217642974854 1693.7226798763 527019.66772414 599422597.34329
69	633410 18493 235 328177 1.11 59.91 589 26.098496416286 29.730048242857 16162.723524742 444015.3864521
67	651903 19835 235 328177 1.11 59.91 589 -0.022067714510946 0.42458017718096 69.395870861455 22.194959930809
66	671738 18476 235 328177 1.11 59.91 589 6.9704447181731 13.930082813357 4996.5746299353 45511.600082908
68	690214 10314 235 328177 1.11 59.91 589 3 3 1767 5301
80	700528 23683 832 328212 1.213905064068 59.913898467223 588 0.099999016194 0.100012572894 58.799992430531 5.8799984920891
79	724211 23700 1044 328430 1.254911577756 59.954918306628 588 0.099908016189 0.10009057177 58.800018756248 5.880004789489
78	747911 16107 832 328212 1.213905064068 59.913898467223 588 3 3 1764 5292
77	764018 16121 1044 328430 1.254911577756 59.954918306628 588 3 3 1764 5292
76	780139 858 5105 328599 2 60 59 0 0 0 0
75	780997 1213 5105 328599 2 60 59 0.022968 0.02625 1.545468 0.040493154024
74	782210 858 5105 328599 2 60 59 3 3 177 531
95	783068 19372 236 328178 1.11 59.91 589 -1.4821537214798 1.4817994875702 -4.4848239228 479.34323872544
94	802440 19427 236 328178 1.11 59.91 589 -1.452742805564 1.4262347659216 -4.791176680839 341.3212277645
93	821867 12670 236 328178 1.11 59.91 589 36.55 36.55 21527.95 786846.5725
92	834537 18499 236 328178 1.11 59.91 589 69.217642974854 1676.3228824838 519812.32525976 585736167.39821
91	853036 18493 236 328178 1.11 59.91 589 25.823670477133 29.716886431342 16098.66209393 440607.89163828
89	871529 19908 236 328178 1.11 59.91 589 -0.013533737314678 0.37068490701924 64.091245124874 18.928117336181
88	891437 18479 236 328178 1.11 59.91 589 6.9872066979058 13.396164983216 4850.0612357658 42308.987821983
90	909916 10314 236 328178 1.11 59.91 589 4 4 2356 9424
102	920230 24261 1246 328635 1.303561907984 60.003555803998 588 0.099999016164 0.100012586418 58.79999292339 5.8799985906625
101	944491 24281 1050 328436 1.254911614448 59.954918364692 588 0.099908016196 0.100090571844 58.80001877762 5.8800047937634
100	968772 16688 1246 328635 1.303561907984 60.003555803998 588 4 4 2352 9408
99	985460 16115 1050 328436 1.254911614448 59.954918364692 588 4 4 2352 9408
98	1001575 858 5106 328600 2 60 59 0 0 0 0
97	1002433 1213 5106 328600 2 60 59 0.022969 0.02625 1.545469 0.040493199961
96	1003646 858 5106 328600 2 60 59 4 4 236 944
117	1004504 19946 237 328179 1.11 59.91 589 -1.4896672661499 1.4914667280331 -6.6107080073603 493.95348961666
116	1024450 20017 237 328179 1.11 59.91 589 -1.4475619142914 1.4231673986711 -6.9368480424767 340.07255360731
115	1044467 13259 237 328179 1.11 59.91 589 36.55 36.55 21527.95 786846.5725
114	1057726 19082 237 328179 1.11 59.91 589 58.217641067505 1659.5324374133 512733.23775298 572594530.68367
113	1076808 19085 237 328179 1.11 59.91 589 25.605517936168 29.708613948087 16040.682533075 437549.8258252
111	1095893 20336 237 328179 1.11 59.91 589 -0.038476784797293 0.33318928540905 58.027472621117 16.072417540446
110	1116229 19096 237 328179 1.11 59.91 589 6.9765032174884 12.786145794753 4721.9279155612 39596.650851107
112	1135325 10903 237 328179 1.11 59.91 589 5 5 2945 14725
124	1146228 24289 1172 328552 1.265747871292 59.965754743877 588 0.099999016129 0.100012614044 58.800005899961 5.8800011861263
123	1170517 24265 1056 328442 1.25491165114 59.954918420727 588 0.099908016204 0.100090571929 58.800018796963 5.880004797632
122	1194782 16695 1172 328552 1.265747871292 59.965754743877 588 5 5 2940 14700
121	1211477 16686 1056 328442 1.25491165114 59.954918420727 588 5 5 2940 14700
120	1228163 917 5107 328601 2 60 59 0 0 0 0
119	1229080 1272 5107 328601 2 60 59 0.022968 0.02625 1.545468 0.040493154024
118	1230352 917 5107 328601 2 60 59 5 5 295 1475
139	1231269 19943 238 328180 1.11 59.91 589 -1.4807582968079 1.4812783402948 -8.851554829292 484.08456660455
138	1251212 19997 238 328180 1.11 59.91 589 -1.4503739176149 1.4266504771111 -9.3299928151801 344.08426660071
137	1271209 13259 238 328180 1.11 59.91 589 36.55 36.55 21527.95 786846.5725
136	1284468 19092 238 328180 1.11 59.91 589 47.217641067505 1643.394157659 505768.47210564 559951203.26079
135	1303560 19110 238 328180 1.11 59.91 589 25.427483440153 29.713767019085 15989.215765668 434860.26397372
133	1322670 20402 238 328180 1.11 59.91 589 -0.019933723703073 0.30606830110786 51.536135888022 13.181067796136
132	1343072 19069 238 328180 1.11 59.91 589 6.9922591690601 12.133475247364 4607.736311997 37286.87469366
134	1362141 10903 238 328180 1.11 59.91 589 6 6 3534 21204
146	1373044 24288 1312 328701 1.305157981368 60.005164913972 588 0.09999901615 0.10001262039 58.80000595998 5.8800011981318
145	1397332 24288 1062 328448 1.254911687832 59.954918474591 588 0.099908016208 0.10009057202 58.800018814135 5.8800048010664
144	1421620 16708 1312 328701 1.305157981368 60.005164913972 588 6 6 3528 21168
143	1438328 16704 1062 328448 1.254911687832 59.954918474591 588 6 6 3528 21168
142	1455032 917 5108 328602 2 60 59 0 0 0 0
141	1455949 1272 5108 328602 2 60 59 0.022969 0.02625 1.545469 0.040493199961
140	1457221 917 5108 328602 2 60 59 6 6 354 2124
161	1458138 19956 239 328181 1.11 59.91 589 -1.4938774161461 1.493808852043 -11.442893505406 500.74173980484
160	1478094 20002 239 328181 1.11 59.91 589 -1.4564665686184 1.4313865033238 -11.880746589402 346.49730103807
159	1498096 13259 239 328181 1.11 59.91 589 36.55 36.55 21527.95 786846.5725
158	1511355 19074 239 328181 1.11 59.91 589 36.217641067505 1627.9133529618 498902.89709599 547756839.39295
157	1530429 19093 239 328181 1.11 59.91 589 25.278682961915 29.719191219808 15944.318518903 432532.27561831
155	1549522 20639 239 328181 1.11 59.91 589 -0.0095325882716111 0.28460809007398 44.990546693175 10.71428381082
154	1570161 19073 239 328181 1.11 59.91 589 6.978517015099 11.475704800879 4508.6770647174 35373.317006101
156	1589234 10903 239 328181 1.11 59.91 589 7 7 4123 28861
168	1600137 24302 975 328355 1.25443328422 59.954426809363 588 0.099999016278 0.100012562948 58.799992552519 5.8799985164846
167	1624439 24269 1068 328454 1.254911724524 59.954918526263 588 0.099908016207 0.100090572113 58.800018829115 5.8800048040624
166	1648708 16701 975 328355 1.25443328422 59.954426809363 588 7 7 4116 28812
165	1665409 16692 1068 328454 1.254911724524 59.954918526263 588 7 7 4116 28812
164	1682101 917 5109 328603 2 60 59 0 0 0 0
163	1683018 1272 5109 328603 2 60 59 0.022969 0.02625 1.545469 0.040493199961
162	1684290 917 5109 328603 2 60 59 7 7 413 2891
