version 2
run SinusoidalJammingDetail-478-20170801-17:50:44-58759
attr CACCSpacing 5
attr attackAcc -30
attr attackPos 7
attr attackSpeed 150
attr attackStart 32.5
attr attacker 1
attr beaconInterval 0.1
attr configname SinusoidalJammingDetail
attr controller 1
attr datetime 20170801-17:50:44
attr experiment SinusoidalJammingDetail
attr fakeAcc "(1 == 4)"
attr fakePos "(1 == 2)"
attr fakeSpeed "(1 == 3)"
attr inifile omnetpp_478.ini
attr iterationvars "$leaderSpeed=120, $controller=1, $CACCSpacing=5, $sController=\"CACC\", $attacker=1, $attackStart=32.5, $attackSpeed=150, $attackPos=7, $attackAcc=-30, $0=5, $1=0, $nCars=8, $platoonSize=8, $nLanes=1, $beaconInterval=0.1, $priority=2, $packetSize=200, $ploegH=0.5, $leaderHeadway=1.2, $fakeSpeed=(1 == 3), $fakeAcc=(1 == 4), $fakePos=(1 == 2)"
attr iterationvarsf leaderSpeed=120,controller=1,CACCSpacing=5,sController=CACC,attacker=1,attackStart=32.5,attackSpeed=150,attackPos=7,attackAcc=-30,5,0,nCars=8,platoonSize=8,nLanes=1,beaconInterval=0.1,priority=2,packetSize=200,ploegH=0.5,leaderHeadway=1.2,fakeSpeed=(1_==_3),fakeAcc=(1_==_4),fakePos=(1_==_2)-
attr leaderHeadway 1.2
attr leaderSpeed 120
attr measurement "$leaderSpeed=120, $controller=1, $CACCSpacing=5, $sController=\"CACC\", $attacker=1, $attackStart=32.5, $attackSpeed=150, $attackPos=7, $attackAcc=-30, $0=5, $1=0, $nCars=8, $platoonSize=8, $nLanes=1, $beaconInterval=0.1, $priority=2, $packetSize=200, $ploegH=0.5, $leaderHeadway=1.2, $fakeSpeed=(1 == 3), $fakeAcc=(1 == 4), $fakePos=(1 == 2)"
attr nCars 8
attr nLanes 1
attr network scenario
attr packetSize 200
attr platoonSize 8
attr ploegH 0.5
attr priority 2
attr processid 58759
attr repetition 3
attr replication #3
attr resultdir results
attr runnumber 478
attr sController "\"CACC\""
attr seedset 3
param **.coreDebug false
param **.debug false
param **.headway 0.1s
param **.numberOfCars 8
param **.numberOfCarsPerPlatoon 8
param **.numberOfLanes 1
param **.numericController 1
param **.traffic.nCars 8
param **.traffic.nLanes 1
param **.traffic.platoonInsertDistance 5m
param **.traffic.platoonInsertHeadway 0s
param **.traffic.platoonInsertSpeed 120kmph
param **.traffic.platoonInsertTime "1 s"
param **.traffic.platoonLeaderHeadway 1.2s
param **.traffic.platoonSize 8
param **.traffic.platooningVType "\"vtypeauto\""
param **.traffic_type "\"PlatoonsTrafficManager\""
param *.**.nic.mac1609_4.bitrate 6Mbps
param *.**.nic.mac1609_4.txPower 100mW
param *.**.nic.mac1609_4.useServiceChannel false
param *.**.nic.phy80211p.analogueModels "xmldoc(\"config.xml\")"
param *.**.nic.phy80211p.decider "xmldoc(\"config.xml\")"
param *.**.nic.phy80211p.maxTXPower 100mW
param *.**.nic.phy80211p.sensitivity -94dBm
param *.**.nic.phy80211p.thermalNoise -95dBm
param *.**.nic.phy80211p.usePropagationDelay true
param *.**.nic.phy80211p.useThermalNoise true
param *.annotations.draw false
param *.connectionManager.alpha 2.0
param *.connectionManager.carrierFrequency "5.890e9 Hz"
param *.connectionManager.pMax 100mW
param *.connectionManager.sat -94dBm
param *.connectionManager.sendDirect true
param *.manager.autoShutdown true
param *.manager.commandLine "\"sumo --remote-port $port --seed $seed --configuration-file $configFile\""
param *.manager.configFile "\"./sumocfg/freeway.sumo.cfg\""
param *.manager.host "\"localhost\""
param *.manager.margin 25
param *.manager.moduleDisplayString "\"\""
param *.manager.moduleName "\"node\""
param *.manager.moduleType "\"Car\""
param *.manager.updateInterval 0.01s
param *.node[*].appl.attackStart 32.5s
param *.node[*].appl.attackerType 1
param *.node[*].appl.simulationDuration "60 s"
param *.node[*].appl_type "\"SimplePlatooningApp\""
param *.node[*].helper.nCars 8
param *.node[*].helper.nLanes 1
param *.node[*].helper.platoonSize 8
param *.node[*].helper_type "\"PositionHelper\""
param *.node[*].mobility.x 0
param *.node[*].mobility.y 0
param *.node[*].mobility.z 1.895
param *.node[*].prot.attackStart 32.5s
param *.node[*].prot.attackerType 1
param *.node[*].prot.attackingNode 3
param *.node[*].prot.beaconingInterval 0.1s
param *.node[*].prot.fakeAcc "(1 == 4)"
param *.node[*].prot.fakePos "(1 == 2)"
param *.node[*].prot.fakeSpeed "(1 == 3)"
param *.node[*].prot.maliciousAcc "-30 mpss"
param *.node[*].prot.maliciousSpeed 150kmph
param *.node[*].prot.packetSize 200
param *.node[*].prot.priority 2
param *.node[*].prot.shiftX "7 m"
param *.node[*].prot.useControllerAcceleration true
param *.node[*].protocol_type "\"SimplePlatooningBeaconing\""
param *.node[*].scenario.accHeadway 0.1s
param *.node[*].scenario.caccC1 0.5
param *.node[*].scenario.caccOmegaN "0.2 Hz"
param *.node[*].scenario.caccSpacing 5m
param *.node[*].scenario.caccXi 1
param *.node[*].scenario.controller "\"CACC\""
param *.node[*].scenario.engineTau "0.5 s"
param *.node[*].scenario.leaderHeadway 1.2s
param *.node[*].scenario.leaderOscillationFrequency "0.2 Hz"
param *.node[*].scenario.leaderSpeed 120kmph
param *.node[*].scenario.oscillationAmplitude "10 kmph"
param *.node[*].scenario.ploegH 0.5s
param *.node[*].scenario.ploegKd 0.7
param *.node[*].scenario.ploegKp 0.2
param *.node[*].scenario.startOscillating "5 s"
param *.node[*].scenario.useRealisticEngine false
param *.node[*].scenario_type "\"SinusoidalScenario\""
param *.node[*].unicast.packetLossRate 0
param *.obstacles.debug false
param *.playgroundSizeX 65000m
param *.playgroundSizeY 25000m
param *.playgroundSizeZ 50m
param *.world.use2D false
param *.world.useTorus false

vector 0  scenario.node[0].appl  distance  ETV
vector 1  scenario.node[0].appl  relativeSpeed  ETV
vector 2  scenario.node[0].appl  nodeId  ETV
vector 6  scenario.node[0].appl  acceleration  ETV
vector 7  scenario.node[0].appl  controllerAcceleration  ETV
vector 3  scenario.node[0].appl  speed  ETV
vector 4  scenario.node[0].appl  posx  ETV
vector 5  scenario.node[0].appl  posy  ETV
vector 22  scenario.node[1].appl  distance  ETV
vector 23  scenario.node[1].appl  relativeSpeed  ETV
vector 24  scenario.node[1].appl  nodeId  ETV
vector 28  scenario.node[1].appl  acceleration  ETV
vector 29  scenario.node[1].appl  controllerAcceleration  ETV
vector 25  scenario.node[1].appl  speed  ETV
vector 26  scenario.node[1].appl  posx  ETV
vector 27  scenario.node[1].appl  posy  ETV
vector 44  scenario.node[2].appl  distance  ETV
vector 45  scenario.node[2].appl  relativeSpeed  ETV
vector 46  scenario.node[2].appl  nodeId  ETV
vector 50  scenario.node[2].appl  acceleration  ETV
vector 51  scenario.node[2].appl  controllerAcceleration  ETV
vector 47  scenario.node[2].appl  speed  ETV
vector 48  scenario.node[2].appl  posx  ETV
vector 49  scenario.node[2].appl  posy  ETV
vector 66  scenario.node[3].appl  distance  ETV
vector 67  scenario.node[3].appl  relativeSpeed  ETV
vector 68  scenario.node[3].appl  nodeId  ETV
vector 72  scenario.node[3].appl  acceleration  ETV
vector 73  scenario.node[3].appl  controllerAcceleration  ETV
vector 69  scenario.node[3].appl  speed  ETV
vector 70  scenario.node[3].appl  posx  ETV
vector 71  scenario.node[3].appl  posy  ETV
vector 88  scenario.node[4].appl  distance  ETV
vector 89  scenario.node[4].appl  relativeSpeed  ETV
vector 90  scenario.node[4].appl  nodeId  ETV
vector 94  scenario.node[4].appl  acceleration  ETV
vector 95  scenario.node[4].appl  controllerAcceleration  ETV
vector 91  scenario.node[4].appl  speed  ETV
vector 92  scenario.node[4].appl  posx  ETV
vector 93  scenario.node[4].appl  posy  ETV
vector 110  scenario.node[5].appl  distance  ETV
vector 111  scenario.node[5].appl  relativeSpeed  ETV
vector 112  scenario.node[5].appl  nodeId  ETV
vector 116  scenario.node[5].appl  acceleration  ETV
vector 117  scenario.node[5].appl  controllerAcceleration  ETV
vector 113  scenario.node[5].appl  speed  ETV
vector 114  scenario.node[5].appl  posx  ETV
vector 115  scenario.node[5].appl  posy  ETV
vector 132  scenario.node[6].appl  distance  ETV
vector 133  scenario.node[6].appl  relativeSpeed  ETV
vector 134  scenario.node[6].appl  nodeId  ETV
vector 138  scenario.node[6].appl  acceleration  ETV
vector 139  scenario.node[6].appl  controllerAcceleration  ETV
vector 135  scenario.node[6].appl  speed  ETV
vector 136  scenario.node[6].appl  posx  ETV
vector 137  scenario.node[6].appl  posy  ETV
vector 154  scenario.node[7].appl  distance  ETV
vector 155  scenario.node[7].appl  relativeSpeed  ETV
vector 156  scenario.node[7].appl  nodeId  ETV
vector 160  scenario.node[7].appl  acceleration  ETV
vector 161  scenario.node[7].appl  controllerAcceleration  ETV
vector 157  scenario.node[7].appl  speed  ETV
vector 158  scenario.node[7].appl  posx  ETV
vector 159  scenario.node[7].appl  posy  ETV
vector 35  scenario.node[1].prot  leaderDelay  ETV
vector 33  scenario.node[1].prot  leaderDelayId  ETV
vector 36  scenario.node[1].prot  frontDelay  ETV
vector 34  scenario.node[1].prot  frontDelayId  ETV
vector 57  scenario.node[2].prot  leaderDelay  ETV
vector 55  scenario.node[2].prot  leaderDelayId  ETV
vector 79  scenario.node[3].prot  leaderDelay  ETV
vector 77  scenario.node[3].prot  leaderDelayId  ETV
vector 101  scenario.node[4].prot  leaderDelay  ETV
vector 99  scenario.node[4].prot  leaderDelayId  ETV
vector 123  scenario.node[5].prot  leaderDelay  ETV
vector 121  scenario.node[5].prot  leaderDelayId  ETV
vector 145  scenario.node[6].prot  leaderDelay  ETV
vector 143  scenario.node[6].prot  leaderDelayId  ETV
vector 167  scenario.node[7].prot  leaderDelay  ETV
vector 165  scenario.node[7].prot  leaderDelayId  ETV
vector 168  scenario.node[7].prot  frontDelay  ETV
vector 166  scenario.node[7].prot  frontDelayId  ETV
vector 58  scenario.node[2].prot  frontDelay  ETV
vector 56  scenario.node[2].prot  frontDelayId  ETV
vector 124  scenario.node[5].prot  frontDelay  ETV
vector 122  scenario.node[5].prot  frontDelayId  ETV
vector 80  scenario.node[3].prot  frontDelay  ETV
vector 78  scenario.node[3].prot  frontDelayId  ETV
vector 146  scenario.node[6].prot  frontDelay  ETV
vector 144  scenario.node[6].prot  frontDelayId  ETV
vector 102  scenario.node[4].prot  frontDelay  ETV
vector 100  scenario.node[4].prot  frontDelayId  ETV
vector 8  scenario.node[0].prot  nodeId  ETV
vector 9  scenario.node[0].prot  busyTime  ETV
vector 10  scenario.node[0].prot  collisions  ETV
vector 30  scenario.node[1].prot  nodeId  ETV
vector 31  scenario.node[1].prot  busyTime  ETV
vector 32  scenario.node[1].prot  collisions  ETV
vector 52  scenario.node[2].prot  nodeId  ETV
vector 53  scenario.node[2].prot  busyTime  ETV
vector 54  scenario.node[2].prot  collisions  ETV
vector 74  scenario.node[3].prot  nodeId  ETV
vector 75  scenario.node[3].prot  busyTime  ETV
vector 76  scenario.node[3].prot  collisions  ETV
vector 96  scenario.node[4].prot  nodeId  ETV
vector 97  scenario.node[4].prot  busyTime  ETV
vector 98  scenario.node[4].prot  collisions  ETV
vector 118  scenario.node[5].prot  nodeId  ETV
vector 119  scenario.node[5].prot  busyTime  ETV
vector 120  scenario.node[5].prot  collisions  ETV
vector 140  scenario.node[6].prot  nodeId  ETV
vector 141  scenario.node[6].prot  busyTime  ETV
vector 142  scenario.node[6].prot  collisions  ETV
vector 162  scenario.node[7].prot  nodeId  ETV
vector 163  scenario.node[7].prot  busyTime  ETV
vector 164  scenario.node[7].prot  collisions  ETV
7	232	1.11	1.264609664986e-06
7	788	1.21	1.2370558053476e-06
7	1344	1.31	1.1922643139428e-06
7	1900	1.41	1.1341353030048e-06
7	2456	1.51	1.0661075364737e-06
7	3012	1.61	9.9117950469463e-07
7	3568	1.71	9.1193474816009e-07
7	4124	1.81	8.3057002342457e-07
7	4680	1.91	7.4892560064654e-07
7	5244	2.01	6.6851609403784e-07
7	5800	2.11	5.9056183232542e-07
7	6356	2.21	5.1602003736662e-07
7	6912	2.31	4.4561458878434e-07
7	7468	2.41	3.7986517753552e-07
7	8024	2.51	3.1911461206846e-07
7	8580	2.61	2.6355444049386e-07
7	9136	2.71	2.1324864718508e-07
7	9692	2.81	1.6815555881067e-07
7	10248	2.91	1.2814749794643e-07
7	10812	3.01	9.3028553749264e-08
7	11368	3.11	6.255026363533e-08
7	11924	3.21	3.6425589655664e-08
7	12480	3.31	1.4340962195547e-08
7	13036	3.41	-4.0332679418498e-09
7	13592	3.51	-1.9034231968362e-08
7	14148	3.61	-3.0998883460143e-08
7	14704	3.71	-4.0258086642098e-08
7	15260	3.81	-4.7131671010447e-08
7	15816	3.91	-5.1925063360159e-08
7	16380	4.01	-5.4926061920924e-08
7	16936	4.11	-5.6402775783226e-08
7	17492	4.21	-5.6602530662531e-08
7	18048	4.31	-5.5751151251116e-08
7	18604	4.41	-5.4052726738973e-08
7	19160	4.51	-5.1689909241759e-08
7	19716	4.61	-4.8824482234977e-08
7	20272	4.71	-4.5598198994412e-08
7	20828	4.81	-4.2133798672239e-08
7	21384	4.91	-3.8536192903393e-08
7	21949	5.01	-3.4893794520485e-08
7	22506	5.11	0.34814783973202
7	23063	5.21	0.68726932535991
7	23620	5.31	1.0064705905053
7	24177	5.41	1.2963311346507
7	24734	5.51	1.5
7	25291	5.61	1.5
7	25848	5.71	1.5
7	26405	5.81	1.5
7	26962	5.91	1.5
7	27527	6.01	1.5
7	28084	6.11	1.5
7	28641	6.21	1.5
7	29198	6.31	1.5
7	29755	6.41	1.5
7	30312	6.51	1.4919234058593
7	30869	6.61	1.2264993209595
7	31426	6.71	0.92305383326438
7	31983	6.81	0.5890810138258
7	32540	6.91	0.23235621116515
7	33105	7.01	-0.13919560237429
7	33662	7.11	-0.51762846938546
7	34219	7.21	-0.89509994250727
7	34776	7.31	-1.2639902910536
7	35333	7.41	-1.5
7	35890	7.51	-1.5
7	36447	7.61	-1.5
7	37004	7.71	-1.5
7	37561	7.81	-1.5
7	38118	7.91	-1.5
7	38683	8.01	-1.5
7	39240	8.11	-1.5
7	39797	8.21	-1.5
7	40354	8.31	-1.5
7	40911	8.41	-1.5
7	41468	8.51	-1.5
7	42025	8.61	-1.5
7	42582	8.71	-1.5
7	43139	8.81	-1.5
7	43696	8.91	-1.5
7	44261	9.01	-1.5
7	44818	9.11	-1.5
7	45375	9.21	-1.5
7	45932	9.31	-1.5
7	46489	9.41	-1.5
7	47046	9.51	-1.178453590773
7	47603	9.61	-0.73985166452546
7	48160	9.71	-0.29046662090423
7	48717	9.81	0.15868205640434
7	49274	9.91	0.59737147663756
7	49839	10.01	1.0162504339375
7	50396	10.11	1.4069035496629
7	50953	10.21	1.5
7	51510	10.31	1.5
7	52067	10.41	1.5
7	52624	10.51	1.5
7	53181	10.61	1.5
7	53738	10.71	1.5
7	54295	10.81	1.5
7	54852	10.91	1.5
7	55417	11.01	1.5
7	55974	11.11	1.5
7	56531	11.21	1.5
7	57088	11.31	1.5
7	57645	11.41	1.5
7	58202	11.51	1.5
7	58759	11.61	1.5
7	59316	11.71	1.5
7	59873	11.81	1.5
7	60430	11.91	1.1420569522446
7	60995	12.01	0.73271074165216
7	61552	12.11	0.30763491694659
7	62109	12.21	-0.12290183408495
7	62666	12.31	-0.5491742287245
7	63223	12.41	-0.96209331723149
7	63780	12.51	-1.3532900275905
7	64337	12.61	-1.5
7	64894	12.71	-1.5
7	65451	12.81	-1.5
7	66008	12.91	-1.5
7	66573	13.01	-1.5
7	67130	13.11	-1.5
7	67687	13.21	-1.5
7	68244	13.31	-1.5
7	68801	13.41	-1.5
7	69358	13.51	-1.5
7	69915	13.61	-1.5
7	70472	13.71	-1.5
7	71029	13.81	-1.5
7	71586	13.91	-1.5
7	72151	14.01	-1.5
7	72708	14.11	-1.5
7	73265	14.21	-1.5
7	73822	14.31	-1.5
7	74379	14.41	-1.300830579343
7	74936	14.51	-0.88835736023715
7	75493	14.61	-0.45792464377335
7	76050	14.71	-0.020297800504288
7	76607	14.81	0.41435934755211
7	77164	14.91	0.83657487482698
7	77729	15.01	1.2376491838765
7	78286	15.11	1.5
7	78843	15.21	1.5
7	79400	15.31	1.5
7	79957	15.41	1.5
7	80514	15.51	1.5
7	81071	15.61	1.5
7	81628	15.71	1.5
7	82185	15.81	1.5
7	82742	15.91	1.5
7	83307	16.01	1.5
7	83864	16.11	1.5
7	84421	16.21	1.5
7	84978	16.31	1.5
7	85535	16.41	1.5
7	86092	16.51	1.5
7	86649	16.61	1.5
7	87206	16.71	1.5
7	87763	16.81	1.5
7	88320	16.91	1.2451238477297
7	88885	17.01	0.83347870134542
7	89442	17.11	0.40470958876118
7	89999	17.21	-0.030598062226161
7	90556	17.31	-0.46243980387321
7	91113	17.41	-0.88148335305221
7	91670	17.51	-1.2791500631775
7	92227	17.61	-1.5
7	92784	17.71	-1.5
7	93341	17.81	-1.5
7	93898	17.91	-1.5
7	94463	18.01	-1.5
7	95020	18.11	-1.5
7	95577	18.21	-1.5
7	96134	18.31	-1.5
7	96691	18.41	-1.5
7	97248	18.51	-1.5
7	97805	18.61	-1.5
7	98362	18.71	-1.5
7	98919	18.81	-1.5
7	99476	18.91	-1.5
7	100041	19.01	-1.5
7	100598	19.11	-1.5
7	101155	19.21	-1.5
7	101712	19.31	-1.5
7	102269	19.41	-1.2657245815155
7	102826	19.51	-0.85377693481785
7	103383	19.61	-0.42439560038367
7	103940	19.71	0.011767371265513
7	104497	19.81	0.44464851836144
7	105054	19.91	0.86486384400278
7	105619	20.01	1.2637899041103
7	106176	20.11	1.5
7	106733	20.21	1.5
7	107290	20.31	1.5
7	107847	20.41	1.5
7	108404	20.51	1.5
7	108961	20.61	1.5
7	109518	20.71	1.5
7	110075	20.81	1.5
7	110632	20.91	1.5
7	111197	21.01	1.5
7	111754	21.11	1.5
7	112311	21.21	1.5
7	112868	21.31	1.5
7	113425	21.41	1.5
7	113982	21.51	1.5
7	114539	21.61	1.5
7	115096	21.71	1.5
7	115653	21.81	1.5
7	116210	21.91	1.2580915517739
7	116775	22.01	0.84625491634584
7	117332	22.11	0.41709956367264
7	117889	22.21	-0.018747163545136
7	118446	22.31	-0.45124369149665
7	119003	22.41	-0.87102520538844
7	119560	22.51	-1.269484879462
7	120117	22.61	-1.5
7	120674	22.71	-1.5
7	121231	22.81	-1.5
7	121788	22.91	-1.5
7	122353	23.01	-1.5
7	122910	23.11	-1.5
7	123467	23.21	-1.5
7	124024	23.31	-1.5
7	124581	23.41	-1.5
7	125138	23.51	-1.5
7	125695	23.61	-1.5
7	126252	23.71	-1.5
7	126809	23.81	-1.5
7	127366	23.91	-1.5
7	127931	24.01	-1.5
7	128488	24.11	-1.5
7	129045	24.21	-1.5
7	129602	24.31	-1.5
7	130159	24.41	-1.260923965114
7	130716	24.51	-0.84904615684758
7	131273	24.61	-0.41980696481334
7	131830	24.71	0.016157099443966
7	132387	24.81	0.44879633965816
7	132944	24.91	0.86873882266688
7	133509	25.01	1.2673715557178
7	134066	25.11	1.5
7	134623	25.21	1.5
7	135180	25.31	1.5
7	135737	25.41	1.5
7	136294	25.51	1.5
7	136851	25.61	1.5
7	137408	25.71	1.5
7	137965	25.81	1.5
7	138522	25.91	1.5
7	139087	26.01	1.5
7	139644	26.11	1.5
7	140201	26.21	1.5
7	140758	26.31	1.5
7	141315	26.41	1.5
7	141872	26.51	1.5
7	142429	26.61	1.5
7	142986	26.71	1.5
7	143543	26.81	1.5
7	144100	26.91	1.2598728518647
7	144665	27.01	0.8480103225158
7	145222	27.11	0.41880224309308
7	145779	27.21	-0.017118277440183
7	146336	27.31	-0.44970455708226
7	146893	27.41	-0.86958730431697
7	147450	27.51	-1.2681558149808
7	148007	27.61	-1.5
7	148564	27.71	-1.5
7	149121	27.81	-1.5
7	149678	27.91	-1.5
7	150243	28.01	-1.5
7	150800	28.11	-1.5
7	151357	28.21	-1.5
7	151914	28.31	-1.5
7	152471	28.41	-1.5
7	153028	28.51	-1.5
7	153585	28.61	-1.5
7	154142	28.71	-1.5
7	154699	28.81	-1.5
7	155256	28.91	-1.5
7	155821	29.01	-1.5
7	156378	29.11	-1.5
7	156935	29.21	-1.5
7	157492	29.31	-1.5
7	158049	29.41	-1.2602629232501
7	158606	29.51	-0.84839472385493
7	159163	29.61	-0.41917509845157
7	159720	29.71	0.016761581288016
7	160277	29.81	0.44936751475895
7	160834	29.91	0.86927243012207
7	161399	30.01	1.2678647739113
7	161956	30.11	1.5
7	162513	30.21	1.5
7	163070	30.31	1.5
7	163627	30.41	1.5
7	164184	30.51	1.5
7	164741	30.61	1.5
7	165298	30.71	1.5
7	165855	30.81	1.5
7	166412	30.91	1.5
7	166977	31.01	1.5
7	167534	31.11	1.5
7	168091	31.21	1.5
7	168648	31.31	1.5
7	169205	31.41	1.5
7	169762	31.51	1.5
7	170319	31.61	1.5
7	170876	31.71	1.5
7	171433	31.81	1.5
7	171990	31.91	1.2601181665228
7	172555	32.01	0.84825207129951
7	173112	32.11	0.41903673064589
7	173669	32.21	-0.016893952361208
7	174226	32.31	-0.44949259223428
7	174783	32.41	-0.8693892809349
7	175340	32.51	-1.2679727801759
7	175897	32.61	-1.5
7	176454	32.71	-1.5
7	177011	32.81	-1.5
7	177568	32.91	-1.5
7	178133	33.01	-1.5
7	178690	33.11	-1.5
7	179247	33.21	-1.5
7	179804	33.31	-1.5
7	180361	33.41	-1.5
7	180918	33.51	-1.5
7	181475	33.61	-1.5
7	182032	33.71	-1.5
7	182589	33.81	-1.5
7	183146	33.91	-1.5
7	183711	34.01	-1.5
7	184268	34.11	-1.5
7	184825	34.21	-1.5
7	185382	34.31	-1.5
7	185939	34.41	-1.2601718862023
7	186496	34.51	-0.84830501011423
7	187053	34.61	-0.4190880793765
7	187610	34.71	0.016844829036998
7	188167	34.81	0.44944617558727
7	188724	34.91	0.86934591722826
7	189289	35.01	1.2679326987089
7	189846	35.11	1.5
7	190403	35.21	1.5
7	190960	35.31	1.5
7	191517	35.41	1.5
7	192074	35.51	1.5
7	192631	35.61	1.5
7	193188	35.71	1.5
7	193745	35.81	1.5
7	194302	35.91	1.5
7	194867	36.01	1.5
7	195424	36.11	1.5
7	195981	36.21	1.5
7	196538	36.31	1.5
7	197095	36.41	1.5
7	197652	36.51	1.5
7	198209	36.61	1.5
7	198766	36.71	1.5
7	199323	36.81	1.5
7	199880	36.91	1.2601519506582
7	200445	37.01	0.8482853643515
7	201002	37.11	0.41906902369898
7	201559	37.21	-0.016863058859116
7	202116	37.31	-0.4494634009528
7	202673	37.41	-0.86936200963788
7	203230	37.51	-1.2679475730689
7	203787	37.61	-1.5
7	204344	37.71	-1.5
7	204901	37.81	-1.5
7	205458	37.91	-1.5
7	206023	38.01	-1.5
7	206580	38.11	-1.5
7	207137	38.21	-1.5
7	207694	38.31	-1.5
7	208251	38.41	-1.5
7	208808	38.51	-1.5
7	209365	38.61	-1.5
7	209922	38.71	-1.5
7	210479	38.81	-1.5
7	211036	38.91	-1.5
7	211601	39.01	-1.5
7	212158	39.11	-1.5
7	212715	39.21	-1.5
7	213272	39.31	-1.5
7	213829	39.41	-1.2601593487987
7	214386	39.51	-0.84829265495303
7	214943	39.61	-0.41907609531791
7	215500	39.71	0.016856293717851
7	216057	39.81	0.44945700856871
7	216614	39.91	0.86935603769744
7	217179	40.01	1.2679420531505
7	217736	40.11	1.5
7	218293	40.21	1.5
7	218850	40.31	1.5
7	219407	40.41	1.5
7	219964	40.51	1.5
7	220521	40.61	1.5
7	221078	40.71	1.5
7	221635	40.81	1.5
7	222192	40.91	1.5
7	222757	41.01	1.5
7	223314	41.11	1.5
7	223871	41.21	1.5
7	224428	41.31	1.5
7	224985	41.41	1.5
7	225542	41.51	1.5
7	226099	41.61	1.5
7	226656	41.71	1.5
7	227213	41.81	1.5
7	227770	41.91	1.2601566033295
7	228335	42.01	0.84828994939176
7	228892	42.11	0.4190734710217
7	229449	42.21	-0.016858804279273
7	230006	42.31	-0.4494593807989
7	230563	42.41	-0.86935825389989
7	231120	42.51	-1.2679441016065
7	231677	42.61	-1.5
7	232234	42.71	-1.5
7	232791	42.81	-1.5
7	233348	42.91	-1.5
7	233913	43.01	-1.5
7	234470	43.11	-1.5
7	235027	43.21	-1.5
7	235584	43.31	-1.5
7	236141	43.41	-1.5
7	236698	43.51	-1.5
7	237255	43.61	-1.5
7	237812	43.71	-1.5
7	238369	43.81	-1.5
7	238926	43.91	-1.5
7	239491	44.01	-1.5
7	240048	44.11	-1.5
7	240605	44.21	-1.5
7	241162	44.31	-1.5
7	241719	44.41	-1.2601576221806
7	242276	44.51	-0.84829095343299
7	242833	44.61	-0.41907444490522
7	243390	44.71	0.016857872603133
7	243947	44.81	0.44945850045789
7	244504	44.91	0.86935743146116
7	245069	45.01	1.2679433414189
7	245626	45.11	1.5
7	246183	45.21	1.5
7	246740	45.31	1.5
7	247297	45.41	1.5
7	247854	45.51	1.5
7	248411	45.61	1.5
7	248968	45.71	1.5
7	249525	45.81	1.5
7	250082	45.91	1.5
7	250647	46.01	1.5
7	251204	46.11	1.5
7	251761	46.21	1.5
7	252318	46.31	1.5
7	252875	46.41	1.5
7	253432	46.51	1.5
7	253989	46.61	1.5
7	254546	46.71	1.5
7	255103	46.81	1.5
7	255660	46.91	1.2601572440836
7	256225	47.01	0.84829058083199
7	256782	47.11	0.41907408349598
7	257339	47.21	-0.016858218348986
7	257896	47.31	-0.44945882715304
7	258453	47.41	-0.86935773666848
7	259010	47.51	-1.2679436235246
7	259567	47.61	-1.5
7	260124	47.71	-1.5
7	260681	47.81	-1.5
7	261238	47.91	-1.5
7	261803	48.01	-1.5
7	262360	48.11	-1.5
7	262917	48.21	-1.5
7	263474	48.31	-1.5
7	264031	48.41	-1.5
7	264588	48.51	-1.5
7	265145	48.61	-1.5
7	265702	48.71	-1.5
7	266259	48.81	-1.5
7	266816	48.91	-1.5
7	267381	49.01	-1.5
7	267938	49.11	-1.5
7	268495	49.21	-1.5
7	269052	49.31	-1.5
7	269609	49.41	-1.2601573843962
7	270166	49.51	-0.84829071910518
7	270723	49.61	-0.41907421761598
7	271280	49.71	0.016858090041644
7	271837	49.81	0.44945870591545
7	272394	49.91	0.86935762340499
7	272959	50.01	1.267943518834
7	273516	50.11	1.5
7	274073	50.21	1.5
7	274630	50.31	1.5
7	275187	50.41	1.5
7	275744	50.51	1.5
7	276301	50.61	1.5
7	276858	50.71	1.5
7	277415	50.81	1.5
7	277972	50.91	1.5
7	278537	51.01	1.5
7	279094	51.11	1.5
7	279651	51.21	1.5
7	280208	51.31	1.5
7	280765	51.41	1.5
7	281322	51.51	1.5
7	281879	51.61	1.5
7	282436	51.71	1.5
7	282993	51.81	1.5
7	283550	51.91	1.2601573323271
7	284115	52.01	0.84829066779303
7	284672	52.11	0.41907416784508
7	285229	52.21	-0.01685813765549
7	285786	52.31	-0.44945875090566
7	286343	52.41	-0.86935766543601
7	286900	52.51	-1.2679435576837
7	287457	52.61	-1.5
7	288014	52.71	-1.5
7	288571	52.81	-1.5
7	289128	52.91	-1.5
7	289693	53.01	-1.5
7	290250	53.11	-1.5
7	290807	53.21	-1.5
7	291364	53.31	-1.5
7	291921	53.41	-1.5
7	292478	53.51	-1.5
7	293035	53.61	-1.5
7	293592	53.71	-1.5
7	294149	53.81	-1.5
7	294706	53.91	-1.5
7	295271	54.01	-1.5
7	295828	54.11	-1.5
7	296385	54.21	-1.5
7	296942	54.31	-1.5
7	297499	54.41	-1.2601573516453
7	298056	54.51	-0.84829068683009
7	298613	54.61	-0.41907418631006
7	299170	54.71	0.016858119991007
7	299727	54.81	0.44945873421482
7	300284	54.91	0.86935764984334
7	300849	55.01	1.2679435432716
7	301406	55.11	1.5
7	301963	55.21	1.5
7	302520	55.31	1.5
7	303077	55.41	1.5
7	303634	55.51	1.5
7	304191	55.61	1.5
7	304748	55.71	1.5
7	305305	55.81	1.5
7	305862	55.91	1.5
7	306427	56.01	1.5
7	306984	56.11	1.5
7	307541	56.21	1.5
7	308098	56.31	1.5
7	308655	56.41	1.5
7	309212	56.51	1.5
7	309769	56.61	1.5
7	310326	56.71	1.5
7	310883	56.81	1.5
7	311440	56.91	1.260157344482
7	312005	57.01	0.8482906797713
7	312562	57.11	0.41907417946368
7	313119	57.21	-0.016858126540363
7	313676	57.31	-0.44945874040299
7	314233	57.41	-0.86935765562429
7	314790	57.51	-1.2679435486147
7	315347	57.61	-1.5
7	315904	57.71	-1.5
7	316461	57.81	-1.5
7	317018	57.91	-1.5
7	317583	58.01	-1.5
7	318140	58.11	-1.5
7	318697	58.21	-1.5
7	319254	58.31	-1.5
7	319811	58.41	-1.5
7	320368	58.51	-1.5
7	320925	58.61	-1.5
7	321482	58.71	-1.5
7	322039	58.81	-1.5
7	322596	58.91	-1.5
7	323161	59.01	-1.5
7	323718	59.11	-1.5
7	324275	59.21	-1.5
7	324832	59.31	-1.5
7	325389	59.41	-1.2601573471354
7	325946	59.51	-0.84829068238587
7	326503	59.61	-0.41907418199942
7	327060	59.71	0.016858124114655
7	327617	59.81	0.44945873811101
7	328174	59.91	0.86935765348309
6	232	1.11	1.8587371641843e-07
6	788	1.21	3.7715039979958e-07
6	1344	1.31	5.2730015909219e-07
6	1900	1.41	6.4101826069418e-07
6	2456	1.51	7.2280812446479e-07
6	3012	1.61	7.7694011224594e-07
6	3568	1.71	8.0741315855448e-07
6	4124	1.81	8.1792990158647e-07
6	4680	1.91	8.1188602507609e-07
6	5244	2.01	7.9236670558203e-07
6	5800	2.11	7.6214163868826e-07
6	6356	2.21	7.2367640768789e-07
6	6912	2.31	6.7914172063865e-07
6	7468	2.41	6.3042691067494e-07
6	8024	2.51	5.791562784907e-07
6	8580	2.61	5.2670969807878e-07
6	9136	2.71	4.7423895921384e-07
6	9692	2.81	4.226883731917e-07
6	10248	2.91	3.7281679965417e-07
6	10812	3.01	3.2521825232834e-07
6	11368	3.11	2.8033753096679e-07
6	11924	3.21	2.3849224817241e-07
6	12480	3.31	1.9988561916762e-07
6	13036	3.41	1.6463133079014e-07
6	13592	3.51	1.3275709420668e-07
6	14148	3.61	1.0422880336591e-07
6	14704	3.71	7.8954798254927e-08
6	15260	3.81	5.6805049553077e-08
6	15816	3.91	3.7617553516611e-08
6	16380	4.01	2.1201884692346e-08
6	16936	4.11	7.354117315117e-09
6	17492	4.21	-4.1374903503311e-09
6	18048	4.31	-1.3491074923877e-08
6	18604	4.41	-2.0921930854456e-08
6	19160	4.51	-2.6641799877325e-08
6	19716	4.61	-3.0856028843118e-08
6	20272	4.71	-3.3759306461434e-08
6	20828	4.81	-3.5534952758098e-08
6	21384	4.91	-3.6354919075166e-08
6	21949	5.01	-3.6375524814503e-08
6	22506	5.11	0.0068263931019885
6	23063	5.21	0.074594779098902
6	23620	5.31	0.19005129180201
6	24177	5.41	0.34050267454901
6	24734	5.51	0.51301634170429
6	25291	5.61	0.6902545459468
6	25848	5.71	0.83572669343468
6	26405	5.81	0.95506452230651
6	26962	5.91	1.0529631073332
6	27527	6.01	1.1332740451195
6	28084	6.11	1.1991569863937
6	28641	6.21	1.2532039452594
6	29198	6.31	1.2975412760781
6	29755	6.41	1.3339133300356
6	30312	6.51	1.3635927180715
6	30869	6.61	1.3702053544215
6	31426	6.71	1.3272611853779
6	31983	6.81	1.2373810849141
6	32540	6.91	1.1040433684336
6	33105	7.01	0.93147091325463
6	33662	7.11	0.72451589912248
6	34219	7.21	0.48854317732108
6	34776	7.31	0.22931329054146
6	35333	7.41	-0.044839403605579
6	35890	7.51	-0.30626147870336
6	36447	7.61	-0.52071863355891
6	37004	7.71	-0.69664819594024
6	37561	7.81	-0.84097171333752
6	38118	7.91	-0.95936726546597
6	38683	8.01	-1.0564928553684
6	39240	8.11	-1.1361696679188
6	39797	8.21	-1.2015324056335
6	40354	8.31	-1.2551526163939
6	40911	8.41	-1.2991398651295
6	41468	8.51	-1.3352247298471
6	42025	8.61	-1.3648268872679
6	42582	8.71	-1.3891109667817
6	43139	8.81	-1.4090323701247
6	43696	8.91	-1.4253748594882
6	44261	9.01	-1.4387813928529
6	44818	9.11	-1.4497794197055
6	45375	9.21	-1.4588016323373
6	45932	9.31	-1.4662029891298
6	46489	9.41	-1.4722746795918
6	47046	9.51	-1.4696249147882
6	47603	9.61	-1.3967850640618
6	48160	9.71	-1.2587757643061
6	48717	9.81	-1.066095221988
6	49274	9.91	-0.82923335039382
6	49839	10.01	-0.55852907855325
6	50396	10.11	-0.26404116091285
6	50953	10.21	0.03943269852158
6	51510	10.31	0.30182609737963
6	52067	10.41	0.5170800760304
6	52624	10.51	0.69366331145844
6	53181	10.61	0.83852306842829
6	53738	10.71	0.95735852377814
6	54295	10.81	1.0548449875394
6	54852	10.91	1.1348178423468
6	55417	11.01	1.2004234378246
6	55974	11.11	1.2542428765379
6	56531	11.21	1.2983935615857
6	57088	11.31	1.3346125010031
6	57645	11.41	1.3643246463779
6	58202	11.51	1.3886989543209
6	58759	11.61	1.4086943764035
6	59316	11.71	1.4250975869132
6	59873	11.81	1.438553932767
6	60430	11.91	1.4345627372599
6	60995	12.01	1.3623449188415
6	61552	12.11	1.2299875654037
6	62109	12.21	1.0461448397272
6	62666	12.31	0.81967864243424
6	63223	12.41	0.55952045898948
6	63780	12.51	0.27454262943465
6	64337	12.61	-0.022341644934443
6	64894	12.71	-0.28780548062457
6	65451	12.81	-0.50557828691211
6	66008	12.91	-0.68422783830826
6	66573	13.01	-0.83078269407011
6	67130	13.11	-0.95100872083407
6	67687	13.21	-1.0496359374898
6	68244	13.31	-1.1305446069947
6	68801	13.41	-1.1969178964684
6	69358	13.51	-1.2513671116459
6	69915	13.61	-1.2960344327446
6	70472	13.71	-1.332677193669
6	71029	13.81	-1.3627370202968
6	71586	13.91	-1.3873965479647
6	72151	14.01	-1.4076259495631
6	72708	14.11	-1.4242211047723
6	73265	14.21	-1.4378349121337
6	73822	14.31	-1.4490029758569
6	74379	14.41	-1.4542593951873
6	74936	14.51	-1.4067454390094
6	75493	14.61	-1.2938574955413
6	76050	14.71	-1.1248409052385
6	76607	14.81	-0.90912582144114
6	77164	14.91	-0.65618298377643
6	77729	15.01	-0.37539052555147
6	78286	15.11	-0.078063005102535
6	78843	15.21	0.20543869666909
6	79400	15.31	0.438008835728
6	79957	15.41	0.62879735390737
6	80514	15.51	0.78531039043099
6	81071	15.61	0.9137055938524
6	81628	15.71	1.0190343806897
6	82185	15.81	1.1054406719012
6	82742	15.91	1.1763239259942
6	83307	16.01	1.2344728829795
6	83864	16.11	1.2821752809813
6	84421	16.21	1.3213078620829
6	84978	16.31	1.3534102084591
6	85535	16.41	1.3797453137308
6	86092	16.51	1.4013492725667
6	86649	16.61	1.4190720434684
6	87206	16.71	1.4336108884464
6	87763	16.81	1.4455378052055
6	88320	16.91	1.450294906531
6	88885	17.01	1.3935559567486
6	89442	17.11	1.273336870139
6	89999	17.21	1.0986742440473
6	90556	17.31	0.87879676590887
6	91113	17.41	0.62298329275308
6	91670	17.51	0.34043137852748
6	92227	17.61	0.043031849074282
6	92784	17.71	-0.23417644595867
6	93341	17.81	-0.46158379950043
6	93898	17.91	-0.64813703535762
6	94463	18.01	-0.80117566522802
6	95020	18.11	-0.92672064505877
6	95577	18.21	-1.0297112558206
6	96134	18.31	-1.1141994282617
6	96691	18.41	-1.1835091568834
6	97248	18.51	-1.240367274923
6	97805	18.61	-1.2870107353912
6	98362	18.71	-1.3252746188869
6	98919	18.81	-1.3566643306589
6	99476	18.91	-1.3824148273436
6	100041	19.01	-1.4035392035204
6	100598	19.11	-1.420868549603
6	101155	19.21	-1.4350846492
6	101712	19.31	-1.4467468023348
6	102269	19.41	-1.4517201941764
6	102826	19.51	-1.3984004323888
6	103383	19.61	-1.2808993810097
6	103940	19.71	-1.1083308503785
6	104497	19.81	-0.88999806036867
6	105054	19.91	-0.63525086466854
6	105619	20.01	-0.35335363991464
6	106176	20.11	-0.055983891308387
6	106733	20.21	0.22355126013309
6	107290	20.31	0.45286744637281
6	107847	20.41	0.64098658988812
6	108404	20.51	0.79530980944469
6	108961	20.61	0.92190860023891
6	109518	20.71	1.0257637030342
6	110075	20.81	1.1109610600442
6	110632	20.91	1.1808525670212
6	111197	21.01	1.2381879459461
6	111754	21.11	1.2852229265711
6	112311	21.21	1.3238079929607
6	112868	21.31	1.3554611865736
6	113425	21.41	1.3814278301389
6	113982	21.51	1.4027295220423
6	114539	21.61	1.4202043287803
6	115096	21.71	1.4345397567773
6	115653	21.81	1.4462998007623
6	116210	21.91	1.4512038299465
6	116775	22.01	1.3966149622043
6	117332	22.11	1.2781048258539
6	117889	22.21	1.104758616826
6	118446	22.31	0.88585193074024
6	119003	22.41	0.63070830476093
6	119560	22.51	0.34856734380924
6	120117	22.61	0.051185654368879
6	120674	22.71	-0.22748748564823
6	121231	22.81	-0.45609652228151
6	121788	22.91	-0.64363555681979
6	122353	23.01	-0.79748288496191
6	122910	23.11	-0.92369127904561
6	123467	23.21	-1.0272261205614
6	124024	23.31	-1.1121607517779
6	124581	23.41	-1.1818367320963
6	125138	23.51	-1.2389953040923
6	125695	23.61	-1.2858852414531
6	126252	23.71	-1.324351321847
6	126809	23.81	-1.355906905502
6	127366	23.91	-1.3817934749042
6	127931	24.01	-1.403029478103
6	128488	24.11	-1.4204503972238
6	129045	24.21	-1.4347416186069
6	129602	24.31	-1.4464653977718
6	130159	24.41	-1.4513952146871
6	130716	24.51	-1.397277320676
6	131273	24.61	-1.2791416668563
6	131830	24.71	-1.1060840673039
6	132387	24.81	-0.88739036841758
6	132944	24.91	-0.63239387292811
6	133509	25.01	-0.35034337811126
6	134066	25.11	-0.052966136912147
6	134623	25.21	0.22602686982154
6	135180	25.31	0.45489830857193
6	135737	25.41	0.64265260423966
6	136294	25.51	0.7966765214853
6	136851	25.61	0.92302978013734
6	137408	25.71	1.0266834610576
6	137965	25.81	1.1117155819754
6	138522	25.91	1.1814715378058
6	139087	26.01	1.2386957175771
6	139644	26.11	1.2856394761641
6	140201	26.21	1.3241497087101
6	140758	26.31	1.3557415125085
6	141315	26.41	1.3816577950429
6	141872	26.51	1.4029181733591
6	142429	26.61	1.4203590885664
6	142986	26.71	1.4346667137048
6	143543	26.81	1.4464039496623
6	144100	26.91	1.4513241957715
6	144665	27.01	1.3970315218245
6	145222	27.11	1.2787568961947
6	145779	27.21	1.1055921925461
6	146336	27.31	0.8868194531928
6	146893	27.41	0.63176835684402
6	147450	27.51	0.34968428947408
6	148007	27.61	0.052305397196051
6	148564	27.71	-0.22656890652399
6	149121	27.81	-0.45534296745871
6	149678	27.91	-0.64301737940156
6	150243	28.01	-0.79697576417033
6	150800	28.11	-0.92327526336575
6	151357	28.21	-1.0268848428062
6	151914	28.31	-1.1118807851517
6	152471	28.41	-1.1816070619503
6	153028	28.51	-1.2388068945782
6	153585	28.61	-1.2857306800278
6	154142	28.71	-1.3242245276466
6	154699	28.81	-1.3558028900952
6	155256	28.91	-1.3817081460417
6	155821	29.01	-1.4029594787168
6	156378	29.11	-1.4203929733462
6	156935	29.21	-1.4346945110262
6	157492	29.31	-1.446426753148
6	158049	29.41	-1.4513505510308
6	158606	29.51	-1.3971227384744
6	159163	29.61	-1.2788996857282
6	159720	29.71	-1.1057747287524
6	160277	29.81	-0.88703132157306
6	160834	29.91	-0.63200048778285
6	161399	30.01	-0.34992887930017
6	161956	30.11	-0.052550599748002
6	162513	30.21	0.22636775502534
6	163070	30.31	0.45517795316812
6	163627	30.41	0.64288201020943
6	164184	30.51	0.79686471428317
6	164741	30.61	0.92318416377992
6	165298	30.71	1.0268101094155
6	165855	30.81	1.1118194777403
6	166412	30.91	1.181556768519
6	166977	31.01	1.2387656364474
6	167534	31.11	1.2856968339904
6	168091	31.21	1.3241967621056
6	168648	31.31	1.3557801126808
6	169205	31.41	1.3816894606293
6	169762	31.51	1.4029441501705
6	170319	31.61	1.4203803985993
6	170876	31.71	1.434684195354
6	171433	31.81	1.4464182907048
6	171990	31.91	1.4513407705138
6	172555	32.01	1.3970888876891
6	173112	32.11	1.2788466960821
6	173669	32.21	1.1057069889901
6	174226	32.31	0.88695269654835
6	174783	32.41	0.63191434325702
6	175340	32.51	0.3498381112415
6	175897	32.61	0.052459604304289
6	176454	32.71	-0.22644240298533
6	177011	32.81	-0.45523919049515
6	177568	32.91	-0.64293224614715
6	178133	33.01	-0.79690592524955
6	178690	33.11	-0.92321797112547
6	179247	33.21	-1.0268378432137
6	179804	33.31	-1.1118422291148
6	180361	33.41	-1.1815754325717
6	180918	33.51	-1.2387809474724
6	181475	33.61	-1.2857093943644
6	182032	33.71	-1.3242070659885
6	182589	33.81	-1.3557885654535
6	183146	33.91	-1.3816963948479
6	183711	34.01	-1.4029498386442
6	184268	34.11	-1.4203850651299
6	184825	34.21	-1.4346880235344
6	185382	34.31	-1.4464214311445
6	185939	34.41	-1.4513444000933
6	186496	34.51	-1.3971014498217
6	187053	34.61	-1.2788663607076
6	187610	34.71	-1.1057321274301
6	188167	34.81	-0.88698187454312
6	188724	34.91	-0.63194631176131
6	189289	35.01	-0.34987179555372
6	189846	35.11	-0.052493373000573
6	190403	35.21	0.22641470089155
6	190960	35.31	0.45521646513009
6	191517	35.41	0.64291360343205
6	192074	35.51	0.79689063173021
6	192631	35.61	0.92320542511359
6	193188	35.71	1.0268275511145
6	193745	35.81	1.1118337860083
6	194302	35.91	1.1815685062835
6	194867	36.01	1.2387752655023
6	195424	36.11	1.2857047331693
6	195981	36.21	1.3242032421843
6	196538	36.31	1.3557854286027
6	197095	36.41	1.3816938215371
6	197652	36.51	1.4029477276331
6	198209	36.61	1.4203833333653
6	198766	36.71	1.4346866028845
6	199323	36.81	1.4464202657166
6	199880	36.91	1.4513430531451
6	200445	37.01	1.397096787975
6	201002	37.11	1.2788590631018
6	201559	37.21	1.105722798475
6	202116	37.31	0.88697104649569
6	202673	37.41	0.63193444814758
6	203230	37.51	0.34985929519777
6	203787	37.61	0.052480841328872
6	204344	37.71	-0.22642498122849
6	204901	37.81	-0.4552248985874
6	205458	37.91	-0.64292052180548
6	206023	38.01	-0.79689630720523
6	206580	38.11	-0.92321008097898
6	207137	38.21	-1.0268313705467
6	207694	38.31	-1.1118369192744
6	208251	38.41	-1.1815710766527
6	208808	38.51	-1.2387773741011
6	209365	38.61	-1.2857064629564
6	209922	38.71	-1.3242046612127
6	210479	38.81	-1.3557865927005
6	211036	38.91	-1.3816947765022
6	211601	39.01	-1.4029485110377
6	212158	39.11	-1.4203839760292
6	212715	39.21	-1.4346871300937
6	213272	39.31	-1.4464206982126
6	213829	39.41	-1.4513435530041
6	214386	39.51	-1.3970985180023
6	214943	39.61	-1.278861771268
6	215500	39.71	-1.1057262604808
6	216057	39.81	-0.88697506482021
6	216614	39.91	-0.63193885077268
6	217179	40.01	-0.34986393411884
6	217736	40.11	-0.052485491870868
6	218293	40.21	0.22642116616325
6	218850	40.31	0.455221768906
6	219407	40.41	0.64291795437512
6	219964	40.51	0.79689420101801
6	220521	40.61	0.92320835317281
6	221078	40.71	1.0268299531432
6	221635	40.81	1.1118357565088
6	222192	40.91	1.1815701227796
6	222757	41.01	1.2387765915925
6	223314	41.11	1.2857058210251
6	223871	41.21	1.3242041346054
6	224428	41.31	1.3557861606998
6	224985	41.41	1.3816944221119
6	225542	41.51	1.4029482203135
6	226099	41.61	1.4203837375341
6	226656	41.71	1.434686934445
6	227213	41.81	1.4464205377131
6	227770	41.91	1.4513433675056
6	228335	42.01	1.3970978759843
6	228892	42.11	1.27886076626
6	229449	42.21	1.1057249757201
6	230006	42.31	0.88697357360843
6	230563	42.41	0.63193721694788
6	231120	42.51	0.34986221260453
6	231677	42.61	0.052483766043565
6	232234	42.71	-0.22642258194239
6	232791	42.81	-0.45522293033713
6	233348	42.91	-0.64291890715467
6	233913	43.01	-0.79689498262923
6	234470	43.11	-0.92320899436658
6	235027	43.21	-1.0268304791452
6	235584	43.31	-1.1118361880143
6	236141	43.41	-1.1815704767656
6	236698	43.51	-1.2387768819849
6	237255	43.61	-1.2857060592488
6	237812	43.71	-1.3242043300316
6	238369	43.81	-1.3557863210153
6	238926	43.91	-1.381694553627
6	239491	44.01	-1.4029483282016
6	240048	44.11	-1.4203838260407
6	240605	44.21	-1.4346870070497
6	241162	44.31	-1.4464205972743
6	241719	44.41	-1.451343436343
6	242276	44.51	-1.3970981142386
6	242833	44.61	-1.2788611392217
6	243390	44.71	-1.1057254524992
6	243947	44.81	-0.88697412700114
6	244504	44.91	-0.63193782326465
6	245069	45.01	-0.34986285146203
6	245626	45.11	-0.052484406501208
6	246183	45.21	0.22642205654364
6	246740	45.31	0.45522249932759
6	247297	45.41	0.64291855357581
6	247854	45.51	0.79689469257076
6	248411	45.61	0.92320875641718
6	248968	45.71	1.0268302839435
6	249525	45.81	1.11183602788
6	250082	45.91	1.1815703453983
6	250647	46.01	1.2387767742169
6	251204	46.11	1.2857059708395
6	251761	46.21	1.3242042575051
6	252318	46.31	1.3557862615187
6	252875	46.41	1.3816945048191
6	253432	46.51	1.4029482881632
6	253989	46.61	1.4203837931959
6	254546	46.71	1.4346869801066
6	255103	46.81	1.4464205751715
6	255660	46.91	1.4513434107982
6	256225	47.01	1.3970980258208
6	256782	47.11	1.278861000813
6	257339	47.21	1.1057252755641
6	257896	47.31	0.88697392163439
6	258453	47.41	0.63193759825779
6	259010	47.51	0.34986261438021
6	259567	47.61	0.052484168826794
6	260124	47.71	-0.2264222515187
6	260681	47.81	-0.45522265927502
6	261238	47.91	-0.64291868478819
6	261803	48.01	-0.79689480021159
6	262360	48.11	-0.92320884471988
6	262917	48.21	-1.0268303563826
6	263474	48.31	-1.1118360873056
6	264031	48.41	-1.181570394148
6	264588	48.51	-1.2387768142098
6	265145	48.61	-1.2857060036488
6	265702	48.71	-1.3242042844205
6	266259	48.81	-1.3557862835988
6	266816	48.91	-1.3816945229308
6	267381	49.01	-1.4029483030207
6	267938	49.11	-1.4203838053838
6	268495	49.21	-1.434686990104
6	269052	49.31	-1.4464205833725
6	269609	49.41	-1.4513434202762
6	270166	49.51	-1.3970980586322
6	270723	49.61	-1.278861052176
6	271280	49.71	-1.1057253412254
6	271837	49.81	-0.88697399784579
6	272394	49.91	-0.63193768175651
6	272959	50.01	-0.34986270236033
6	273516	50.11	-0.052484257028595
6	274073	50.21	0.22642217916342
6	274630	50.31	0.45522259991841
6	275187	50.41	0.64291863609398
6	275744	50.51	0.79689476026559
6	276301	50.61	0.92320881195036
6	276858	50.71	1.0268303294993
6	277415	50.81	1.1118360652517
6	277972	50.91	1.1815703760554
6	278537	51.01	1.2387767993658
6	279094	51.11	1.2857059914715
6	279651	51.21	1.3242042744295
6	280208	51.31	1.3557862754034
6	280765	51.41	1.3816945162091
6	281322	51.51	1.4029482975062
6	281879	51.61	1.4203838008591
6	282436	51.71	1.4346869863921
6	282993	51.81	1.4464205803264
6	283550	51.91	1.4513434167576
6	284115	52.01	1.3970980464549
6	284672	52.11	1.2788610331157
6	285229	52.21	1.105725316858
6	285786	52.31	0.88697396956405
6	286343	52.41	0.63193765077045
6	286900	52.51	0.3498626697116
6	287457	52.61	0.052484224296734
6	288014	52.71	-0.22642220601483
6	288571	52.81	-0.45522262194666
6	289128	52.91	-0.64291865416592
6	289693	53.01	-0.79689477509106
6	290250	53.11	-0.92320882411272
6	290807	53.21	-1.0268303394788
6	291364	53.31	-1.1118360734393
6	291921	53.41	-1.1815703827729
6	292478	53.51	-1.2387768048775
6	293035	53.61	-1.2857059959934
6	293592	53.71	-1.32420427814
6	294149	53.81	-1.3557862784467
6	294706	53.91	-1.3816945187052
6	295271	54.01	-1.4029482995547
6	295828	54.11	-1.4203838025402
6	296385	54.21	-1.4346869877713
6	296942	54.31	-1.4464205814591
6	297499	54.41	-1.451343418065
6	298056	54.51	-1.3970980509761
6	298613	54.61	-1.2788610401898
6	299170	54.71	-1.1057253259004
6	299727	54.81	-0.88697398005948
6	300284	54.91	-0.63193766226988
6	300849	55.01	-0.34986268182706
6	301406	55.11	-0.052484236442041
6	301963	55.21	0.22642219605302
6	302520	55.31	0.455222613774
6	303077	55.41	0.64291864746124
6	303634	55.51	0.79689476959004
6	304191	55.61	0.92320881960006
6	304748	55.71	1.0268303357755
6	305305	55.81	1.1118360704003
6	305862	55.91	1.1815703802796
6	306427	56.01	1.2387768028326
6	306984	56.11	1.2857059943151
6	307541	56.21	1.3242042767622
6	308098	56.31	1.3557862773162
6	308655	56.41	1.3816945177773
6	309212	56.51	1.4029482987922
6	309769	56.61	1.4203838019135
6	310326	56.71	1.4346869872561
6	310883	56.81	1.4464205810363
6	311440	56.91	1.4513434175775
6	312005	57.01	1.3970980492964
6	312562	57.11	1.2788610375644
6	313119	57.21	1.1057253225459
6	313676	57.31	0.88697397616713
6	314233	57.41	0.6319376580052
6	314790	57.51	0.3498626773343
6	315347	57.61	0.05248423193791
6	315904	57.71	-0.22642219974713
6	316461	57.81	-0.45522261680375
6	317018	57.91	-0.64291864994814
6	317583	58.01	-0.79689477163001
6	318140	58.11	-0.9232088212741
6	318697	58.21	-1.0268303371497
6	319254	58.31	-1.111836071528
6	319811	58.41	-1.1815703812047
6	320368	58.51	-1.2387768035921
6	320925	58.61	-1.285705994939
6	321482	58.71	-1.3242042772745
6	322039	58.81	-1.3557862777375
6	322596	58.91	-1.3816945181233
6	323161	59.01	-1.4029482990772
6	323718	59.11	-1.420383802148
6	324275	59.21	-1.4346869874494
6	324832	59.31	-1.4464205811933
6	325389	59.41	-1.4513434177587
6	325946	59.51	-1.3970980499202
6	326503	59.61	-1.2788610385371
6	327060	59.71	-1.1057253237887
6	327617	59.81	-0.88697397760811
6	328174	59.91	-0.63193765958403
5	232	1.11	36.55
5	788	1.21	36.55
5	1344	1.31	36.55
5	1900	1.41	36.55
5	2456	1.51	36.55
5	3012	1.61	36.55
5	3568	1.71	36.55
5	4124	1.81	36.55
5	4680	1.91	36.55
5	5244	2.01	36.55
5	5800	2.11	36.55
5	6356	2.21	36.55
5	6912	2.31	36.55
5	7468	2.41	36.55
5	8024	2.51	36.55
5	8580	2.61	36.55
5	9136	2.71	36.55
5	9692	2.81	36.55
5	10248	2.91	36.55
5	10812	3.01	36.55
5	11368	3.11	36.55
5	11924	3.21	36.55
5	12480	3.31	36.55
5	13036	3.41	36.55
5	13592	3.51	36.55
5	14148	3.61	36.55
5	14704	3.71	36.55
5	15260	3.81	36.55
5	15816	3.91	36.55
5	16380	4.01	36.55
5	16936	4.11	36.55
5	17492	4.21	36.55
5	18048	4.31	36.55
5	18604	4.41	36.55
5	19160	4.51	36.55
5	19716	4.61	36.55
5	20272	4.71	36.55
5	20828	4.81	36.55
5	21384	4.91	36.55
5	21949	5.01	36.55
5	22506	5.11	36.55
5	23063	5.21	36.55
5	23620	5.31	36.55
5	24177	5.41	36.55
5	24734	5.51	36.55
5	25291	5.61	36.55
5	25848	5.71	36.55
5	26405	5.81	36.55
5	26962	5.91	36.55
5	27527	6.01	36.55
5	28084	6.11	36.55
5	28641	6.21	36.55
5	29198	6.31	36.55
5	29755	6.41	36.55
5	30312	6.51	36.55
5	30869	6.61	36.55
5	31426	6.71	36.55
5	31983	6.81	36.55
5	32540	6.91	36.55
5	33105	7.01	36.55
5	33662	7.11	36.55
5	34219	7.21	36.55
5	34776	7.31	36.55
5	35333	7.41	36.55
5	35890	7.51	36.55
5	36447	7.61	36.55
5	37004	7.71	36.55
5	37561	7.81	36.55
5	38118	7.91	36.55
5	38683	8.01	36.55
5	39240	8.11	36.55
5	39797	8.21	36.55
5	40354	8.31	36.55
5	40911	8.41	36.55
5	41468	8.51	36.55
5	42025	8.61	36.55
5	42582	8.71	36.55
5	43139	8.81	36.55
5	43696	8.91	36.55
5	44261	9.01	36.55
5	44818	9.11	36.55
5	45375	9.21	36.55
5	45932	9.31	36.55
5	46489	9.41	36.55
5	47046	9.51	36.55
5	47603	9.61	36.55
5	48160	9.71	36.55
5	48717	9.81	36.55
5	49274	9.91	36.55
5	49839	10.01	36.55
5	50396	10.11	36.55
5	50953	10.21	36.55
5	51510	10.31	36.55
5	52067	10.41	36.55
5	52624	10.51	36.55
5	53181	10.61	36.55
5	53738	10.71	36.55
5	54295	10.81	36.55
5	54852	10.91	36.55
5	55417	11.01	36.55
5	55974	11.11	36.55
5	56531	11.21	36.55
5	57088	11.31	36.55
5	57645	11.41	36.55
5	58202	11.51	36.55
5	58759	11.61	36.55
5	59316	11.71	36.55
5	59873	11.81	36.55
5	60430	11.91	36.55
5	60995	12.01	36.55
5	61552	12.11	36.55
5	62109	12.21	36.55
5	62666	12.31	36.55
5	63223	12.41	36.55
5	63780	12.51	36.55
5	64337	12.61	36.55
5	64894	12.71	36.55
5	65451	12.81	36.55
5	66008	12.91	36.55
5	66573	13.01	36.55
5	67130	13.11	36.55
5	67687	13.21	36.55
5	68244	13.31	36.55
5	68801	13.41	36.55
5	69358	13.51	36.55
5	69915	13.61	36.55
5	70472	13.71	36.55
5	71029	13.81	36.55
5	71586	13.91	36.55
5	72151	14.01	36.55
5	72708	14.11	36.55
5	73265	14.21	36.55
5	73822	14.31	36.55
5	74379	14.41	36.55
5	74936	14.51	36.55
5	75493	14.61	36.55
5	76050	14.71	36.55
5	76607	14.81	36.55
5	77164	14.91	36.55
5	77729	15.01	36.55
5	78286	15.11	36.55
5	78843	15.21	36.55
5	79400	15.31	36.55
5	79957	15.41	36.55
5	80514	15.51	36.55
5	81071	15.61	36.55
5	81628	15.71	36.55
5	82185	15.81	36.55
5	82742	15.91	36.55
5	83307	16.01	36.55
5	83864	16.11	36.55
5	84421	16.21	36.55
5	84978	16.31	36.55
5	85535	16.41	36.55
5	86092	16.51	36.55
5	86649	16.61	36.55
5	87206	16.71	36.55
5	87763	16.81	36.55
5	88320	16.91	36.55
5	88885	17.01	36.55
5	89442	17.11	36.55
5	89999	17.21	36.55
5	90556	17.31	36.55
5	91113	17.41	36.55
5	91670	17.51	36.55
5	92227	17.61	36.55
5	92784	17.71	36.55
5	93341	17.81	36.55
5	93898	17.91	36.55
5	94463	18.01	36.55
5	95020	18.11	36.55
5	95577	18.21	36.55
5	96134	18.31	36.55
5	96691	18.41	36.55
5	97248	18.51	36.55
5	97805	18.61	36.55
5	98362	18.71	36.55
5	98919	18.81	36.55
5	99476	18.91	36.55
5	100041	19.01	36.55
5	100598	19.11	36.55
5	101155	19.21	36.55
5	101712	19.31	36.55
5	102269	19.41	36.55
5	102826	19.51	36.55
5	103383	19.61	36.55
5	103940	19.71	36.55
5	104497	19.81	36.55
5	105054	19.91	36.55
5	105619	20.01	36.55
5	106176	20.11	36.55
5	106733	20.21	36.55
5	107290	20.31	36.55
5	107847	20.41	36.55
5	108404	20.51	36.55
5	108961	20.61	36.55
5	109518	20.71	36.55
5	110075	20.81	36.55
5	110632	20.91	36.55
5	111197	21.01	36.55
5	111754	21.11	36.55
5	112311	21.21	36.55
5	112868	21.31	36.55
5	113425	21.41	36.55
5	113982	21.51	36.55
5	114539	21.61	36.55
5	115096	21.71	36.55
5	115653	21.81	36.55
5	116210	21.91	36.55
5	116775	22.01	36.55
5	117332	22.11	36.55
5	117889	22.21	36.55
5	118446	22.31	36.55
5	119003	22.41	36.55
5	119560	22.51	36.55
5	120117	22.61	36.55
5	120674	22.71	36.55
5	121231	22.81	36.55
5	121788	22.91	36.55
5	122353	23.01	36.55
5	122910	23.11	36.55
5	123467	23.21	36.55
5	124024	23.31	36.55
5	124581	23.41	36.55
5	125138	23.51	36.55
5	125695	23.61	36.55
5	126252	23.71	36.55
5	126809	23.81	36.55
5	127366	23.91	36.55
5	127931	24.01	36.55
5	128488	24.11	36.55
5	129045	24.21	36.55
5	129602	24.31	36.55
5	130159	24.41	36.55
5	130716	24.51	36.55
5	131273	24.61	36.55
5	131830	24.71	36.55
5	132387	24.81	36.55
5	132944	24.91	36.55
5	133509	25.01	36.55
5	134066	25.11	36.55
5	134623	25.21	36.55
5	135180	25.31	36.55
5	135737	25.41	36.55
5	136294	25.51	36.55
5	136851	25.61	36.55
5	137408	25.71	36.55
5	137965	25.81	36.55
5	138522	25.91	36.55
5	139087	26.01	36.55
5	139644	26.11	36.55
5	140201	26.21	36.55
5	140758	26.31	36.55
5	141315	26.41	36.55
5	141872	26.51	36.55
5	142429	26.61	36.55
5	142986	26.71	36.55
5	143543	26.81	36.55
5	144100	26.91	36.55
5	144665	27.01	36.55
5	145222	27.11	36.55
5	145779	27.21	36.55
5	146336	27.31	36.55
5	146893	27.41	36.55
5	147450	27.51	36.55
5	148007	27.61	36.55
5	148564	27.71	36.55
5	149121	27.81	36.55
5	149678	27.91	36.55
5	150243	28.01	36.55
5	150800	28.11	36.55
5	151357	28.21	36.55
5	151914	28.31	36.55
5	152471	28.41	36.55
5	153028	28.51	36.55
5	153585	28.61	36.55
5	154142	28.71	36.55
5	154699	28.81	36.55
5	155256	28.91	36.55
5	155821	29.01	36.55
5	156378	29.11	36.55
5	156935	29.21	36.55
5	157492	29.31	36.55
5	158049	29.41	36.55
5	158606	29.51	36.55
5	159163	29.61	36.55
5	159720	29.71	36.55
5	160277	29.81	36.55
5	160834	29.91	36.55
5	161399	30.01	36.55
5	161956	30.11	36.55
5	162513	30.21	36.55
5	163070	30.31	36.55
5	163627	30.41	36.55
5	164184	30.51	36.55
5	164741	30.61	36.55
5	165298	30.71	36.55
5	165855	30.81	36.55
5	166412	30.91	36.55
5	166977	31.01	36.55
5	167534	31.11	36.55
5	168091	31.21	36.55
5	168648	31.31	36.55
5	169205	31.41	36.55
5	169762	31.51	36.55
5	170319	31.61	36.55
5	170876	31.71	36.55
5	171433	31.81	36.55
5	171990	31.91	36.55
5	172555	32.01	36.55
5	173112	32.11	36.55
5	173669	32.21	36.55
5	174226	32.31	36.55
5	174783	32.41	36.55
5	175340	32.51	36.55
5	175897	32.61	36.55
5	176454	32.71	36.55
5	177011	32.81	36.55
5	177568	32.91	36.55
5	178133	33.01	36.55
5	178690	33.11	36.55
5	179247	33.21	36.55
5	179804	33.31	36.55
5	180361	33.41	36.55
5	180918	33.51	36.55
5	181475	33.61	36.55
5	182032	33.71	36.55
5	182589	33.81	36.55
5	183146	33.91	36.55
5	183711	34.01	36.55
5	184268	34.11	36.55
5	184825	34.21	36.55
5	185382	34.31	36.55
5	185939	34.41	36.55
5	186496	34.51	36.55
5	187053	34.61	36.55
5	187610	34.71	36.55
5	188167	34.81	36.55
5	188724	34.91	36.55
5	189289	35.01	36.55
5	189846	35.11	36.55
5	190403	35.21	36.55
5	190960	35.31	36.55
5	191517	35.41	36.55
5	192074	35.51	36.55
5	192631	35.61	36.55
5	193188	35.71	36.55
5	193745	35.81	36.55
5	194302	35.91	36.55
5	194867	36.01	36.55
5	195424	36.11	36.55
5	195981	36.21	36.55
5	196538	36.31	36.55
5	197095	36.41	36.55
5	197652	36.51	36.55
5	198209	36.61	36.55
5	198766	36.71	36.55
5	199323	36.81	36.55
5	199880	36.91	36.55
5	200445	37.01	36.55
5	201002	37.11	36.55
5	201559	37.21	36.55
5	202116	37.31	36.55
5	202673	37.41	36.55
5	203230	37.51	36.55
5	203787	37.61	36.55
5	204344	37.71	36.55
5	204901	37.81	36.55
5	205458	37.91	36.55
5	206023	38.01	36.55
5	206580	38.11	36.55
5	207137	38.21	36.55
5	207694	38.31	36.55
5	208251	38.41	36.55
5	208808	38.51	36.55
5	209365	38.61	36.55
5	209922	38.71	36.55
5	210479	38.81	36.55
5	211036	38.91	36.55
5	211601	39.01	36.55
5	212158	39.11	36.55
5	212715	39.21	36.55
5	213272	39.31	36.55
5	213829	39.41	36.55
5	214386	39.51	36.55
5	214943	39.61	36.55
5	215500	39.71	36.55
5	216057	39.81	36.55
5	216614	39.91	36.55
5	217179	40.01	36.55
5	217736	40.11	36.55
5	218293	40.21	36.55
5	218850	40.31	36.55
5	219407	40.41	36.55
5	219964	40.51	36.55
5	220521	40.61	36.55
5	221078	40.71	36.55
5	221635	40.81	36.55
5	222192	40.91	36.55
5	222757	41.01	36.55
5	223314	41.11	36.55
5	223871	41.21	36.55
5	224428	41.31	36.55
5	224985	41.41	36.55
5	225542	41.51	36.55
5	226099	41.61	36.55
5	226656	41.71	36.55
5	227213	41.81	36.55
5	227770	41.91	36.55
5	228335	42.01	36.55
5	228892	42.11	36.55
5	229449	42.21	36.55
5	230006	42.31	36.55
5	230563	42.41	36.55
5	231120	42.51	36.55
5	231677	42.61	36.55
5	232234	42.71	36.55
5	232791	42.81	36.55
5	233348	42.91	36.55
5	233913	43.01	36.55
5	234470	43.11	36.55
5	235027	43.21	36.55
5	235584	43.31	36.55
5	236141	43.41	36.55
5	236698	43.51	36.55
5	237255	43.61	36.55
5	237812	43.71	36.55
5	238369	43.81	36.55
5	238926	43.91	36.55
5	239491	44.01	36.55
5	240048	44.11	36.55
5	240605	44.21	36.55
5	241162	44.31	36.55
5	241719	44.41	36.55
5	242276	44.51	36.55
5	242833	44.61	36.55
5	243390	44.71	36.55
5	243947	44.81	36.55
5	244504	44.91	36.55
5	245069	45.01	36.55
5	245626	45.11	36.55
5	246183	45.21	36.55
5	246740	45.31	36.55
5	247297	45.41	36.55
5	247854	45.51	36.55
5	248411	45.61	36.55
5	248968	45.71	36.55
5	249525	45.81	36.55
5	250082	45.91	36.55
5	250647	46.01	36.55
5	251204	46.11	36.55
5	251761	46.21	36.55
5	252318	46.31	36.55
5	252875	46.41	36.55
5	253432	46.51	36.55
5	253989	46.61	36.55
5	254546	46.71	36.55
5	255103	46.81	36.55
5	255660	46.91	36.55
5	256225	47.01	36.55
5	256782	47.11	36.55
5	257339	47.21	36.55
5	257896	47.31	36.55
5	258453	47.41	36.55
5	259010	47.51	36.55
5	259567	47.61	36.55
5	260124	47.71	36.55
5	260681	47.81	36.55
5	261238	47.91	36.55
5	261803	48.01	36.55
5	262360	48.11	36.55
5	262917	48.21	36.55
5	263474	48.31	36.55
5	264031	48.41	36.55
5	264588	48.51	36.55
5	265145	48.61	36.55
5	265702	48.71	36.55
5	266259	48.81	36.55
5	266816	48.91	36.55
5	267381	49.01	36.55
5	267938	49.11	36.55
5	268495	49.21	36.55
5	269052	49.31	36.55
5	269609	49.41	36.55
5	270166	49.51	36.55
5	270723	49.61	36.55
5	271280	49.71	36.55
5	271837	49.81	36.55
5	272394	49.91	36.55
5	272959	50.01	36.55
5	273516	50.11	36.55
5	274073	50.21	36.55
5	274630	50.31	36.55
5	275187	50.41	36.55
5	275744	50.51	36.55
5	276301	50.61	36.55
5	276858	50.71	36.55
5	277415	50.81	36.55
5	277972	50.91	36.55
5	278537	51.01	36.55
5	279094	51.11	36.55
5	279651	51.21	36.55
5	280208	51.31	36.55
5	280765	51.41	36.55
5	281322	51.51	36.55
5	281879	51.61	36.55
5	282436	51.71	36.55
5	282993	51.81	36.55
5	283550	51.91	36.55
5	284115	52.01	36.55
5	284672	52.11	36.55
5	285229	52.21	36.55
5	285786	52.31	36.55
5	286343	52.41	36.55
5	286900	52.51	36.55
5	287457	52.61	36.55
5	288014	52.71	36.55
5	288571	52.81	36.55
5	289128	52.91	36.55
5	289693	53.01	36.55
5	290250	53.11	36.55
5	290807	53.21	36.55
5	291364	53.31	36.55
5	291921	53.41	36.55
5	292478	53.51	36.55
5	293035	53.61	36.55
5	293592	53.71	36.55
5	294149	53.81	36.55
5	294706	53.91	36.55
5	295271	54.01	36.55
5	295828	54.11	36.55
5	296385	54.21	36.55
5	296942	54.31	36.55
5	297499	54.41	36.55
5	298056	54.51	36.55
5	298613	54.61	36.55
5	299170	54.71	36.55
5	299727	54.81	36.55
5	300284	54.91	36.55
5	300849	55.01	36.55
5	301406	55.11	36.55
5	301963	55.21	36.55
5	302520	55.31	36.55
5	303077	55.41	36.55
5	303634	55.51	36.55
5	304191	55.61	36.55
5	304748	55.71	36.55
5	305305	55.81	36.55
5	305862	55.91	36.55
5	306427	56.01	36.55
5	306984	56.11	36.55
5	307541	56.21	36.55
5	308098	56.31	36.55
5	308655	56.41	36.55
5	309212	56.51	36.55
5	309769	56.61	36.55
5	310326	56.71	36.55
5	310883	56.81	36.55
5	311440	56.91	36.55
5	312005	57.01	36.55
5	312562	57.11	36.55
5	313119	57.21	36.55
5	313676	57.31	36.55
5	314233	57.41	36.55
5	314790	57.51	36.55
5	315347	57.61	36.55
5	315904	57.71	36.55
5	316461	57.81	36.55
5	317018	57.91	36.55
5	317583	58.01	36.55
5	318140	58.11	36.55
5	318697	58.21	36.55
5	319254	58.31	36.55
5	319811	58.41	36.55
5	320368	58.51	36.55
5	320925	58.61	36.55
5	321482	58.71	36.55
5	322039	58.81	36.55
5	322596	58.91	36.55
5	323161	59.01	36.55
5	323718	59.11	36.55
5	324275	59.21	36.55
5	324832	59.31	36.55
5	325389	59.41	36.55
5	325946	59.51	36.55
5	326503	59.61	36.55
5	327060	59.71	36.55
5	327617	59.81	36.55
5	328174	59.91	36.55
4	232	1.11	105.6792881016
4	788	1.21	109.01262131041
4	1344	1.31	112.34595452331
4	1900	1.41	115.6792877417
4	2456	1.51	119.01262096667
4	3012	1.61	122.34595419898
4	3568	1.71	125.67928743912
4	4124	1.81	129.01262068735
4	4680	1.91	132.34595394375
4	5244	2.01	135.67928720824
4	5800	2.11	139.01262048058
4	6356	2.21	142.34595376047
4	6912	2.31	145.67928704751
4	7468	2.41	149.01262034125
4	8024	2.51	152.34595364118
4	8580	2.61	155.6792869468
4	9136	2.71	159.01262025759
4	9692	2.81	162.34595357301
4	10248	2.91	165.67928689256
4	10812	3.01	169.01262021574
4	11368	3.11	172.34595354209
4	11924	3.21	175.67928687115
4	12480	3.31	179.01262020252
4	13036	3.41	182.34595353582
4	13592	3.51	185.6792868707
4	14148	3.61	189.01262020686
4	14704	3.71	192.345953544
4	15260	3.81	195.67928688189
4	15816	3.91	199.01262022031
4	16380	4.01	202.34595355907
4	16936	4.11	205.67928689801
4	17492	4.21	209.01262023701
4	18048	4.31	212.34595357594
4	18604	4.41	215.67928691473
4	19160	4.51	219.0126202533
4	19716	4.61	222.34595359159
4	20272	4.71	225.67928692956
4	20828	4.81	229.0126202672
4	21384	4.91	232.34595360447
4	21949	5.01	235.67928694139
4	22506	5.11	239.01262164322
4	23063	5.21	242.34618284641
4	23620	5.31	245.68074414264
4	24177	5.41	249.01753015957
4	24734	5.51	252.35809088095
4	25291	5.61	255.70416116922
4	25848	5.71	259.05742650896
4	26405	5.81	262.41928894063
4	26962	5.91	265.79089875756
4	27527	6.01	269.17319960092
4	28084	6.11	272.56696558513
4	28641	6.21	275.97283175366
4	29198	6.31	279.39131906331
4	29755	6.41	282.82285488013
4	30312	6.51	286.26778976145
4	30869	6.61	289.72638145719
4	31426	6.71	293.19858353441
4	31983	6.81	296.68386947656
4	32540	6.91	300.18125050731
4	33105	7.01	303.68931191386
4	33662	7.11	307.20625658171
4	34219	7.21	310.72995458492
4	34776	7.31	314.25799766413
4	35333	7.41	317.7877578824
4	35890	7.51	321.31652231248
4	36447	7.61	324.84179314801
4	37004	7.71	328.36150324371
4	37561	7.81	331.87395682042
4	38118	7.91	335.37776274862
4	38683	8.01	338.87177981757
4	39240	8.11	342.35507183697
4	39797	8.21	345.82687080471
4	40354	8.31	349.28654669155
4	40911	8.41	352.73358265409
4	41468	8.51	356.16755470071
4	42025	8.61	359.58811501061
4	42582	8.71	362.99497824961
4	43139	8.81	366.38791034427
4	43696	8.91	369.76671927285
4	44261	9.01	373.13124751065
4	44818	9.11	376.48136583255
4	45375	9.21	379.81696822893
4	45932	9.31	383.13796773499
4	46489	9.41	386.4442930093
4	47046	9.51	389.73588778986
4	47603	9.61	393.01294737703
4	48160	9.71	396.27633309214
4	48717	9.81	399.52753669758
4	49274	9.91	402.76857530642
4	49839	10.01	406.00188675814
4	50396	10.11	409.23022676958
4	50953	10.21	412.45656810002
4	51510	10.31	415.68383896335
4	52067	10.41	418.91456066874
4	52624	10.51	422.15080804203
4	53181	10.61	425.3942831631
4	53738	10.71	428.64638233028
4	54295	10.81	431.90825099452
4	54852	10.91	435.18082882456
4	55417	11.01	438.46488667607
4	55974	11.11	441.76105691917
4	56531	11.21	445.06985831762
4	57088	11.31	448.39171643839
4	57645	11.41	451.72698039462
4	58202	11.51	455.07593658068
4	58759	11.61	458.43881993971
4	59316	11.71	461.8158232069
4	59873	11.81	465.20710449225
4	60430	11.91	468.61277870161
4	60995	12.01	472.03264080523
4	61552	12.11	475.46584548712
4	62109	12.21	478.91096364595
4	62666	12.31	482.36606939109
4	63223	12.41	485.8288288338
4	63780	12.51	489.29658931047
4	64337	12.61	492.76646861291
4	64894	12.71	496.23557799199
4	65451	12.81	499.70137167328
4	66008	12.91	503.16175055201
4	66573	13.01	506.61499263117
4	67130	13.11	510.05968527343
4	67687	13.21	513.49466962418
4	68244	13.31	516.91899501897
4	68801	13.41	520.33188158187
4	69358	13.51	523.73268954298
4	69915	13.61	527.12089406813
4	70472	13.71	530.49606461053
4	71029	13.81	533.85784797183
4	71586	13.91	537.20595440637
4	72151	14.01	540.54014622181
4	72708	14.11	543.8602284276
4	73265	14.21	547.16604106362
4	73822	14.31	550.45745290683
4	74379	14.41	553.7343570897
4	74936	14.51	556.99682015007
4	75493	14.61	560.24545739397
4	76050	14.71	563.48151255601
4	76607	14.81	566.70677145355
4	77164	14.91	569.92346757078
4	77729	15.01	573.13418750979
4	78286	15.11	576.34177718897
4	78843	15.21	579.54917948206
4	79400	15.31	582.75910354229
4	79957	15.41	585.9737911054
4	80514	15.51	589.19508117551
4	81071	15.61	592.42448237651
4	81628	15.71	595.66323230544
4	82185	15.81	598.91234622295
4	82742	15.91	602.17265699636
4	83307	16.01	605.44484786698
4	83864	16.11	608.72947933065
4	84421	16.21	612.02701118918
4	84978	16.31	615.3378206402
4	85535	16.41	618.66221711715
4	86092	16.51	622.00045446322
4	86649	16.61	625.35274091825
4	87206	16.71	628.71924731143
4	87763	16.81	632.1001137822
4	88320	16.91	635.49545427923
4	88885	17.01	638.90517229854
4	89442	17.11	642.32856946988
4	89999	17.21	645.76433213198
4	90556	17.31	649.21062098803
4	91113	17.41	652.66516352598
4	91670	17.51	656.12534667124
4	92227	17.61	659.58830895642
4	92784	17.71	663.05112473643
4	93341	17.81	666.51114174711
4	93898	17.91	669.96616801662
4	94463	18.01	673.41440536459
4	95020	18.11	676.85437865683
4	95577	18.21	680.28487776949
4	96134	18.31	683.70490997953
4	96691	18.41	687.11366090831
4	97248	18.51	690.51046248169
4	97805	18.61	693.89476664617
4	98362	18.71	697.26612380701
4	98919	18.81	700.62416513992
4	99476	18.91	703.96858808052
4	100041	19.01	707.29914442065
4	100598	19.11	710.61563054316
4	101155	19.21	713.91787941105
4	101712	19.31	717.20575399583
4	102269	19.41	720.47914280511
4	102826	19.51	723.73813100482
4	103383	19.61	726.98338613192
4	103940	19.71	730.21619592059
4	104497	19.81	733.43837983056
4	105054	19.91	736.65219588846
4	105619	20.01	739.86024733354
4	106176	20.11	743.06538984404
4	106733	20.21	746.27055541195
4	107290	20.31	749.47841733338
4	107847	20.41	752.69118597934
4	108404	20.51	755.91067462393
4	108961	20.61	759.13837078347
4	109518	20.71	762.37549473946
4	110075	20.81	765.62304754773
4	110632	20.91	768.88185042274
4	111197	21.01	772.15257704637
4	111754	21.11	775.43578007243
4	112311	21.21	778.73191286949
4	112868	21.31	782.04134735773
4	113425	21.41	785.3643886412
4	113982	21.51	788.70128701152
4	114539	21.61	792.05224779497
4	115096	21.71	795.41743943063
4	115653	21.81	798.79700009721
4	116210	21.91	802.19104220071
4	116775	22.01	805.59947644893
4	117332	22.11	809.02162388214
4	117889	22.21	812.45618714012
4	118446	22.31	815.9013393958
4	119003	22.41	819.35481724024
4	119560	22.51	822.81401377686
4	120117	22.61	826.27607117117
4	120674	22.71	829.73805977586
4	121231	22.81	833.19731408587
4	121788	22.91	836.6516305464
4	122353	23.01	840.099201475
4	122910	23.11	843.53854394244
4	123467	23.21	846.96844143026
4	124024	23.31	850.3878959696
4	124581	23.41	853.79608887842
4	125138	23.51	857.19234855227
4	125695	23.61	860.57612404161
4	126252	23.71	863.9469633759
4	126809	23.81	867.3044957819
4	127366	23.91	870.64841709639
4	127931	24.01	873.9784777996
4	128488	24.11	877.2944731984
4	129045	24.21	880.59623537316
4	129602	24.31	883.88362657125
4	130159	24.41	887.15653472513
4	130716	24.51	890.41504759537
4	131273	24.61	893.65983990259
4	131830	24.71	896.89220543469
4	132387	24.81	900.11396828456
4	132944	24.91	903.32738986365
4	133509	25.01	906.53507571114
4	134066	25.11	909.73988286116
4	134623	25.21	912.94474183096
4	135180	25.31	916.1523210166
4	135737	25.41	919.36482650219
4	136294	25.51	922.58406804507
4	136851	25.61	925.81153027658
4	137408	25.71	929.04843111156
4	137965	25.81	932.29576966433
4	138522	25.91	935.55436555666
4	139087	26.01	938.82489116385
4	139644	26.11	942.10789806785
4	140201	26.21	945.40383875797
4	140758	26.31	948.71308443305
4	141315	26.41	952.03593960542
4	141872	26.51	955.37265408126
4	142429	26.61	958.72343278863
4	142986	26.71	962.08844383994
4	143543	26.81	965.4678251459
4	144100	26.91	968.86168889966
4	144665	27.01	972.26994677224
4	145222	27.11	975.69192246987
4	145779	27.21	979.12632087896
4	146336	27.31	982.57131689194
4	146893	27.41	986.02464835609
4	147450	27.51	989.4837092285
4	148007	27.61	992.94564217801
4	148564	27.71	996.40751701021
4	149121	27.81	999.86666640189
4	149678	27.91	1003.3208852076
4	150243	28.01	1006.7683644399
4	150800	28.11	1010.2076200992
4	151357	28.21	1013.6374347889
4	151914	28.31	1017.0568098196
4	152471	28.41	1020.4649259184
4	153028	28.51	1023.861110996
4	153585	28.61	1027.2448137052
4	154142	28.71	1030.6155817491
4	154699	28.81	1033.9730440869
4	155256	28.91	1037.3168963358
4	155821	29.01	1040.6468887959
4	156378	29.11	1043.9628166264
4	156935	29.21	1047.2645117863
4	157492	29.31	1050.5518364235
4	158049	29.41	1053.8246783917
4	158606	29.51	1057.0831258088
4	159163	29.61	1060.3278543847
4	159720	29.71	1063.5601587412
4	160277	29.81	1066.7818636092
4	160834	29.91	1069.9952308663
4	161399	30.01	1073.2028663685
4	161956	30.11	1076.4076273369
4	162513	30.21	1079.6124440855
4	163070	30.31	1082.8199843357
4	163627	30.41	1086.0324535814
4	164184	30.51	1089.2516610955
4	164741	30.61	1092.4790911123
4	165298	30.71	1095.7159612207
4	165855	30.81	1098.9632702676
4	166412	30.91	1102.2218376555
4	166977	31.01	1105.4923355799
4	167534	31.11	1108.7753154749
4	168091	31.21	1112.071229709
4	168648	31.31	1115.3804493816
4	169205	31.41	1118.7032789235
4	169762	31.51	1122.0399680741
4	170319	31.61	1125.3907217067
4	170876	31.71	1128.7557078886
4	171433	31.81	1132.1350644936
4	171990	31.91	1135.5289036856
4	172555	32.01	1138.9371372683
4	173112	32.11	1142.3590893151
4	173669	32.21	1145.7934650217
4	174226	32.31	1149.2384395174
4	174783	32.41	1152.6917508225
4	175340	32.51	1156.1507930117
4	175897	32.61	1159.612708823
4	176454	32.71	1163.0745679868
4	177011	32.81	1166.5337029294
4	177568	32.91	1169.9879082864
4	178133	33.01	1173.4353748905
4	178690	33.11	1176.8746185949
4	179247	33.21	1180.3044218818
4	179804	33.31	1183.7237859628
4	180361	33.41	1187.1318914835
4	180918	33.51	1190.5280662879
4	181475	33.61	1193.911758974
4	182032	33.71	1197.2825172
4	182589	33.81	1200.6399698882
4	183146	33.91	1203.9838126256
4	183711	34.01	1207.3137956874
4	184268	34.11	1210.6297142125
4	184825	34.21	1213.9314001433
4	185382	34.31	1217.218715614
4	185939	34.41	1220.4915484672
4	186496	34.51	1223.7499868702
4	187053	34.61	1226.9947066692
4	187610	34.71	1230.2270026007
4	188167	34.81	1233.4486994836
4	188724	34.91	1236.6620592596
4	189289	35.01	1239.8696878285
4	189846	35.11	1243.0744424368
4	190403	35.21	1246.2792533708
4	190960	35.31	1249.4867882589
4	191517	35.41	1252.6992525137
4	192074	35.51	1255.9184553415
4	192631	35.61	1259.1458809218
4	193188	35.71	1262.3827467986
4	193745	35.81	1265.630051782
4	194302	35.91	1268.8886152444
4	194867	36.01	1272.1591093563
4	195424	36.11	1275.4420855317
4	195981	36.21	1278.7379961224
4	196538	36.31	1282.0472122139
4	197095	36.41	1285.3700382261
4	197652	36.51	1288.706723889
4	198209	36.61	1292.0574740683
4	198766	36.71	1295.4224568252
4	199323	36.81	1298.8018100285
4	199880	36.91	1302.1956458379
4	200445	37.01	1305.6038760755
4	201002	37.11	1309.0258248651
4	201559	37.21	1312.4601974452
4	202116	37.31	1315.9051689776
4	202673	37.41	1319.3584775065
4	203230	37.51	1322.8175171226
4	203787	37.61	1326.2794305737
4	204344	37.71	1329.7412875797
4	204901	37.81	1333.2004205324
4	205458	37.91	1336.6546240372
4	206023	38.01	1340.1020889023
4	206580	38.11	1343.5413309602
4	207137	38.21	1346.9711326768
4	207694	38.31	1350.3904952498
4	208251	38.41	1353.7985993137
4	208808	38.51	1357.1947727034
4	209365	38.61	1360.5784640091
4	209922	38.71	1363.949220883
4	210479	38.81	1367.3066722423
4	211036	38.91	1370.6505136697
4	211601	39.01	1373.9804954373
4	212158	39.11	1377.2964126808
4	212715	39.21	1380.5980973406
4	213272	39.31	1383.8854115489
4	213829	39.41	1387.1582431468
4	214386	39.51	1390.4166803084
4	214943	39.61	1393.6613988987
4	215500	39.71	1396.89369367
4	216057	39.81	1400.1153894531
4	216614	39.91	1403.3287481989
4	217179	40.01	1406.5363758129
4	217736	40.11	1409.7411295453
4	218293	40.21	1412.9459396785
4	218850	40.31	1416.1534738282
4	219407	40.41	1419.3659373957
4	219964	40.51	1422.5851395781
4	220521	40.61	1425.8125645474
4	221078	40.71	1429.0494298414
4	221635	40.81	1432.2967342652
4	222192	40.91	1435.555297187
4	222757	41.01	1438.8257907738
4	223314	41.11	1442.108766437
4	223871	41.21	1445.4046765259
4	224428	41.31	1448.7138921243
4	224985	41.41	1452.0367176503
4	225542	41.51	1455.3734028329
4	226099	41.61	1458.7241525366
4	226656	41.71	1462.0891348219
4	227213	41.81	1465.4684875567
4	227770	41.91	1468.8623229003
4	228335	42.01	1472.2705526772
4	228892	42.11	1475.6925010182
4	229449	42.21	1479.1268731678
4	230006	42.31	1482.5718442921
4	230563	42.41	1486.0251524386
4	231120	42.51	1489.4841917004
4	231677	42.61	1492.9461048264
4	232234	42.71	1496.4079615352
4	232791	42.81	1499.8670942139
4	233348	42.91	1503.3212974636
4	233913	43.01	1506.7687620892
4	234470	43.11	1510.2080039204
4	235027	43.21	1513.6378054207
4	235584	43.31	1517.057167786
4	236141	43.41	1520.4652716493
4	236698	43.51	1523.8614448441
4	237255	43.61	1527.2451359597
4	237812	43.71	1530.6158926475
4	238369	43.81	1533.9733438237
4	238926	43.91	1537.3171850708
4	239491	44.01	1540.6471666601
4	240048	44.11	1543.9630837271
4	240605	44.21	1547.2647682118
4	241162	44.31	1550.5520822463
4	241719	44.41	1553.8249136713
4	242276	44.51	1557.083350662
4	242833	44.61	1560.3280690859
4	243390	44.71	1563.5603636973
4	243947	44.81	1566.782059329
4	244504	44.91	1569.9954179329
4	245069	45.01	1573.2030454154
4	245626	45.11	1576.4077990272
4	246183	45.21	1579.6126090501
4	246740	45.31	1582.8201430981
4	247297	45.41	1586.0326065709
4	247854	45.51	1589.2518086644
4	248411	45.61	1592.4792335496
4	248968	45.71	1595.7160987633
4	249525	45.81	1598.9634031101
4	250082	45.91	1602.2219659574
4	250647	46.01	1605.4924594719
4	251204	46.11	1608.7754350646
4	251761	46.21	1612.0713450844
4	252318	46.31	1615.3805606148
4	252875	46.41	1618.7033860739
4	253432	46.51	1622.0400711904
4	253989	46.61	1625.3908208286
4	254546	46.71	1628.7558030489
4	255103	46.81	1632.1351557192
4	255660	46.91	1635.5289909986
4	256225	47.01	1638.9372207121
4	256782	47.11	1642.3591689914
4	257339	47.21	1645.7935410816
4	257896	47.31	1649.2385121497
4	258453	47.41	1652.6918202435
4	259010	47.51	1656.1508594565
4	259567	47.61	1659.6127725378
4	260124	47.71	1663.0746292057
4	260681	47.81	1666.5337618466
4	261238	47.91	1669.9879650612
4	261803	48.01	1673.4354296538
4	262360	48.11	1676.8746714538
4	262917	48.21	1680.3044729243
4	263474	48.31	1683.723835261
4	264031	48.41	1687.1319390967
4	264588	48.51	1690.5281122647
4	265145	48.61	1693.9118033541
4	265702	48.71	1697.2825600162
4	266259	48.81	1700.6400111672
4	266816	48.91	1703.9838523894
4	267381	49.01	1707.3138339542
4	267938	49.11	1710.6297509969
4	268495	49.21	1713.9314354575
4	269052	49.31	1717.2187494681
4	269609	49.41	1720.4915808693
4	270166	49.51	1723.7500178364
4	270723	49.61	1726.9947362373
4	271280	49.71	1730.2270308268
4	271837	49.81	1733.4487264376
4	272394	49.91	1736.662085022
4	272959	50.01	1739.8697124864
4	273516	50.11	1743.0744660815
4	274073	50.21	1746.2792760893
4	274630	50.31	1749.4868101233
4	275187	50.41	1752.699273583
4	275744	50.51	1755.9184756643
4	276301	50.61	1759.1459005379
4	276858	50.71	1762.3827657406
4	277415	50.81	1765.6300700767
4	277972	50.91	1768.8886329138
4	278537	51.01	1772.1591264184
4	279094	51.11	1775.4421020013
4	279651	51.21	1778.7380120116
4	280208	51.31	1782.0472275327
4	280765	51.41	1785.3700529826
4	281322	51.51	1788.7067380899
4	281879	51.61	1792.0574877191
4	282436	51.71	1795.4224699304
4	282993	51.81	1798.8018225918
4	283550	51.91	1802.1956578625
4	284115	52.01	1805.6038875672
4	284672	52.11	1809.0258358379
4	285229	52.21	1812.46020792
4	285786	52.31	1815.9051789804
4	286343	52.41	1819.358487067
4	286900	52.51	1822.8175262732
4	287457	52.61	1826.2794393484
4	288014	52.71	1829.7412960106
4	288571	52.81	1833.2004286463
4	289128	52.91	1836.6546318561
4	289693	53.01	1840.1020964441
4	290250	53.11	1843.5413382398
4	290807	53.21	1846.9711397062
4	291364	53.31	1850.390502039
4	291921	53.41	1853.7986058709
4	292478	53.51	1857.1947790351
4	293035	53.61	1860.578470121
4	293592	53.71	1863.9492267795
4	294149	53.81	1867.3066779271
4	294706	53.91	1870.6505191459
4	295271	54.01	1873.9805007072
4	295828	54.11	1877.2964177467
4	296385	54.21	1880.598102204
4	296942	54.31	1883.8854162112
4	297499	54.41	1887.1582476091
4	298056	54.51	1890.416684573
4	298613	54.61	1893.6614029708
4	299170	54.71	1896.8936975572
4	299727	54.81	1900.1153931652
4	300284	54.91	1903.3287517468
4	300849	55.01	1906.5363792087
4	301406	55.11	1909.7411328016
4	301963	55.21	1912.9459428072
4	302520	55.31	1916.1534768393
4	303077	55.41	1919.3659402973
4	303634	55.51	1922.5851423769
4	304191	55.61	1925.8125672488
4	304748	55.71	1929.04943245
4	305305	55.81	1932.2967367847
4	305862	55.91	1935.5552996203
4	306427	56.01	1938.8257931236
4	306984	56.11	1942.1087687052
4	307541	56.21	1945.4046787141
4	308098	56.31	1948.7138942339
4	308655	56.41	1952.0367196825
4	309212	56.51	1955.3734047886
4	309769	56.61	1958.7241544166
4	310326	56.71	1962.0891366267
4	310883	56.81	1965.4684892869
4	311440	56.91	1968.8623245563
4	312005	57.01	1972.2705542598
4	312562	57.11	1975.6925025294
4	313119	57.21	1979.1268746103
4	313676	57.31	1982.5718456696
4	314233	57.41	1986.0251537552
4	314790	57.51	1989.4841929605
4	315347	57.61	1992.9461060348
4	315904	57.71	1996.4079626963
4	316461	57.81	1999.8670953313
4	317018	57.91	2003.3212985404
4	317583	58.01	2006.7687631278
4	318140	58.11	2010.2080049229
4	318697	58.21	2013.6378063887
4	319254	58.31	2017.057168721
4	319811	58.41	2020.4652725524
4	320368	58.51	2023.8614457161
4	320925	58.61	2027.2451368014
4	321482	58.71	2030.6158934595
4	322039	58.81	2033.9733446066
4	322596	58.91	2037.3171858249
4	323161	59.01	2040.6471673858
4	323718	59.11	2043.9630844248
4	324275	59.21	2047.2647688816
4	324832	59.31	2050.5520828883
4	325389	59.41	2053.8249142859
4	325946	59.51	2057.0833512493
4	326503	59.61	2060.3280696466
4	327060	59.71	2063.5603642326
4	327617	59.81	2066.7820598402
4	328174	59.91	2069.9954184215
3	232	1.11	33.333332070582
3	788	1.21	33.333332100049
3	1344	1.31	33.333332146342
3	1900	1.41	33.333332205608
3	2456	1.51	33.333332274454
3	3012	1.61	33.333332349923
3	3568	1.71	33.333332429473
3	4124	1.81	33.333332510943
3	4680	1.91	33.333332592527
3	5244	2.01	33.333332672741
3	5800	2.11	33.333332750393
3	6356	2.21	33.33333282455
3	6912	2.31	33.33333289451
3	7468	2.41	33.333332959772
3	8024	2.51	33.33333302001
3	8580	2.61	33.333333075046
3	9136	2.71	33.333333124827
3	9692	2.81	33.333333169405
3	10248	2.91	33.333333208914
3	10812	3.01	33.333333243557
3	11368	3.11	33.333333273586
3	11924	3.21	33.333333299293
3	12480	3.31	33.333333320991
3	13036	3.41	33.333333339013
3	13592	3.51	33.333333353695
3	14148	3.61	33.333333365375
3	14704	3.71	33.333333374381
3	15260	3.81	33.333333381033
3	15816	3.91	33.333333385635
3	16380	4.01	33.333333388471
3	16936	4.11	33.33333338981
3	17492	4.21	33.333333389894
3	18048	4.31	33.33333338895
3	18604	4.41	33.333333387177
3	19160	4.51	33.333333384757
3	19716	4.61	33.333333381849
3	20272	4.71	33.333333378594
3	20828	4.81	33.333333375112
3	21384	4.91	33.333333371506
3	21949	5.01	33.333333367863
3	22506	5.11	33.333401628544
3	23063	5.21	33.337615197889
3	23620	5.31	33.351331457648
3	24177	5.41	33.378611875711
3	24734	5.51	33.422277525915
3	25291	5.61	33.483619363034
3	25848	5.71	33.560883289289
3	26405	5.81	33.651214374853
3	26962	5.91	33.75226508234
3	27527	6.01	33.862109613447
3	28084	6.11	33.97916814281
3	28641	6.21	34.102144663378
3	29198	6.31	34.229975997969
3	29755	6.41	34.36178997099
3	30312	6.51	34.49686951103
3	30869	6.61	34.63394454499
3	31426	6.71	34.768907460539
3	31983	6.81	34.896940693623
3	32540	6.91	35.013537294543
3	33105	7.01	35.114580456764
3	33662	7.11	35.196411611993
3	34219	7.21	35.255886909516
3	34776	7.31	35.290421999417
3	35333	7.41	35.298048086563
3	35890	7.51	35.278759124112
3	36447	7.61	35.23598770154
3	37004	7.71	35.17395248273
3	37561	7.81	35.096114241429
3	38118	7.91	35.005312017494
3	38683	8.01	34.903874812445
3	39240	8.11	34.79371321872
3	39797	8.21	34.676394587578
3	40354	8.31	34.553204692958
3	40911	8.41	34.425198317326
3	41468	8.51	34.293240749685
3	42025	8.61	34.158041828395
3	42582	8.71	34.020183868152
3	43139	8.81	33.880144569824
3	43696	8.91	33.738315814505
3	44261	9.01	33.595019081188
3	44818	9.11	33.450518094614
3	45375	9.21	33.30502920093
3	45932	9.31	33.158729879327
3	46489	9.41	33.011765724558
3	47046	9.51	32.864353863035
3	47603	9.61	32.721012496936
3	48160	9.71	32.588643994693
3	48717	9.81	32.473185082585
3	49274	9.91	32.37952165218
3	49839	10.01	32.31149760861
3	50396	10.11	32.271937243073
3	50953	10.21	32.262628456892
3	51510	10.31	32.281431757463
3	52067	10.41	32.323804768138
3	52624	10.51	32.385513150424
3	53181	10.61	32.463083271939
3	53738	10.71	32.553665544264
3	54295	10.81	32.654922312383
3	54852	10.91	32.764935884979
3	55417	11.01	32.88213308724
3	55974	11.11	33.005223367884
3	56531	11.21	33.13314802536
3	57088	11.31	33.265038555652
3	57645	11.41	33.400182482965
3	58202	11.51	33.537995328993
3	58759	11.61	33.677997617952
3	59316	11.71	33.819796012697
3	59873	11.81	33.96306783977
3	60430	11.91	34.107141747152
3	60995	12.01	34.246982852793
3	61552	12.11	34.376202942323
3	62109	12.21	34.489264817717
3	62666	12.31	34.581509590607
3	63223	12.41	34.649169726167
3	63780	12.51	34.689368787218
3	64337	12.61	34.7001510107
3	64894	12.71	34.682882928545
3	65451	12.81	34.641769331689
3	66008	12.91	34.581094107388
3	66573	13.01	34.504371535269
3	67130	13.11	34.414484548651
3	67687	13.21	34.313798156979
3	68244	13.31	34.204252491731
3	68801	13.41	34.087439136468
3	69358	13.51	33.964663744057
3	69915	13.61	33.836997404607
3	70472	13.71	33.705318785069
3	71029	13.81	33.570348698382
3	71586	13.91	33.432678462216
3	72151	14.01	33.292793163015
3	72708	14.11	33.151090740619
3	73265	14.21	33.0078976443
3	73822	14.31	32.863481676162
3	74379	14.41	32.718101580034
3	74936	14.51	32.574886427257
3	75493	14.61	32.440114751869
3	76050	14.71	32.319814522883
3	76607	14.81	32.219077485442
3	77164	14.91	32.142048757657
3	77729	15.01	32.091930244201
3	78286	15.11	32.070975264143
3	78843	15.21	32.079224413257
3	79400	15.31	32.112939343728
3	79957	15.41	32.167545084638
3	80514	15.51	32.239288566376
3	81071	15.61	32.325090964666
3	81628	15.71	32.422426571247
3	82185	15.81	32.529223425642
3	82742	15.91	32.643781798595
3	83307	16.01	32.764707320103
3	83864	16.11	32.890856121102
3	84421	16.21	33.021289830551
3	84978	16.31	33.155238657363
3	85535	16.41	33.292071104728
3	86092	16.51	33.43126912531
3	86649	16.61	33.572407739859
3	87206	16.71	33.715138317369
3	87763	16.81	33.859174858989
3	88320	16.91	34.00423217336
3	88885	17.01	34.146527003479
3	89442	17.11	34.279561763556
3	89999	17.21	34.397486339902
3	90556	17.31	34.49536634699
3	91113	17.41	34.569194390325
3	91670	17.51	34.615887710296
3	92227	17.61	34.633302198405
3	92784	17.71	34.621906345921
3	93341	17.81	34.585610022692
3	93898	17.91	34.528886640621
3	94463	18.01	34.455405955556
3	95020	18.11	34.368178445471
3	95577	18.21	34.269673750852
3	96134	18.31	34.161917837073
3	96691	18.41	34.046572701384
3	97248	18.51	33.925001760404
3	97805	18.61	33.798323490638
3	98362	18.71	33.667455432386
3	98919	18.81	33.533150288272
3	99476	18.91	33.396025536615
3	100041	19.01	33.256587724703
3	100598	19.11	33.115252397745
3	101155	19.21	32.972360447543
3	101712	19.31	32.828191524111
3	102269	19.41	32.683020974216
3	102826	19.51	32.540389451904
3	103383	19.61	32.406715289624
3	103940	19.71	32.287914451662
3	104497	19.81	32.188979592244
3	105054	19.91	32.113969109672
3	105619	20.01	32.066009892824
3	106176	20.11	32.047286503659
3	106733	20.21	32.057518927939
3	107290	20.31	32.092860834819
3	107847	20.41	32.148801263061
3	108404	20.51	32.221639653283
3	108961	20.61	32.308340257886
3	109518	20.71	32.406412706488
3	110075	20.81	32.513814027983
3	110632	20.91	32.628868274494
3	111197	21.01	32.750200585031
3	111754	21.11	32.87668309472
3	112311	21.21	33.007390561525
3	112868	21.31	33.141563964718
3	113425	21.41	33.278580642935
3	113982	21.51	33.417929796984
3	114539	21.61	33.559192393615
3	115096	21.71	33.702024679617
3	115653	21.81	33.846144657624
3	116210	21.91	33.99127355855
3	116775	22.01	34.133781378533
3	117332	22.11	34.267219468202
3	117889	22.21	34.385696284949
3	118446	22.31	34.484240786262
3	119003	22.41	34.558813492781
[...]
165	5884	2.169560015545	7
165	6440	2.269558796085	7
165	6996	2.369557576625	7
165	7552	2.469556357165	7
165	8108	2.569555137705	7
165	8664	2.669566918245	7
165	9220	2.769565698785	7
165	9776	2.869564479325	7
165	10332	2.969563259865	7
165	10896	3.069562040405	7
165	11452	3.169560820945	7
165	12008	3.269559601485	7
165	12564	3.369558382025	7
165	13120	3.469557162565	7
165	13676	3.569555943105	7
165	14232	3.669554723645	7
165	14788	3.769566504185	7
165	15344	3.869565284725	7
165	15900	3.969564065265	7
165	16464	4.069562845805	7
165	17020	4.169561626345	7
165	17576	4.269560406885	7
165	18132	4.369559187425	7
165	18688	4.469557967965	7
165	19244	4.569556748505	7
165	19800	4.669555529045	7
165	20356	4.769554309585	7
165	20912	4.869566090125	7
165	21468	4.969564870665	7
165	22033	5.069563651205	7
165	22590	5.169562431746	7
165	23147	5.269561212289	7
165	23704	5.369559992841	7
165	24261	5.469558773414	7
165	24818	5.569557554028	7
165	25375	5.669556334705	7
165	25932	5.769555115468	7
165	26489	5.869566896344	7
165	27046	5.969565677351	7
165	27611	6.069564458509	7
165	28168	6.169563239832	7
165	28725	6.269562021333	7
165	29282	6.369560803023	7
165	29839	6.469559584912	7
165	30396	6.569558367012	7
165	30953	6.669557149327	7
165	31510	6.769555931865	7
165	32067	6.869554714624	7
165	32624	6.9695664976	7
165	33189	7.069565280781	7
165	33746	7.169564064147	7
165	34303	7.269562847678	7
165	34860	7.369561631344	7
165	35417	7.469560415113	7
165	35974	7.56955919895	7
165	36531	7.669557982819	7
165	37088	7.769556766689	7
165	37645	7.86955555053	7
165	38202	7.969554334319	7
165	38767	8.069566118035	7
165	39324	8.16956490166	7
165	39881	8.269563685178	7
165	40438	8.369562468575	7
165	40995	8.46956125184	7
165	41552	8.569560034963	7
165	42109	8.669558817933	7
165	42666	8.769557600741	7
165	43223	8.869556383377	7
165	43780	8.969555165834	7
165	44345	9.069566948104	7
165	44902	9.169565730182	7
165	45459	9.269564512058	7
165	46016	9.369563293728	7
165	46573	9.469562075183	7
165	47130	9.56956085642	7
165	47687	9.669559637433	7
165	48244	9.769558418224	7
165	48801	9.869557198803	7
165	49358	9.969555979189	7
165	49923	10.069554759405	7
165	50480	10.169566539484	7
165	51037	10.269565319462	7
165	51594	10.369564099376	7
165	52151	10.469562879264	7
165	52708	10.569561659159	7
165	53265	10.66956043909	7
165	53822	10.769559219077	7
165	54379	10.869557999142	7
165	54936	10.969556779303	7
165	55501	11.069555559575	7
165	56058	11.169554339971	7
165	56615	11.269566120502	7
165	57172	11.369564901177	7
165	57729	11.469563682009	7
165	58286	11.569562463005	7
165	58843	11.669561244172	7
165	59400	11.76956002552	7
165	59957	11.869558807055	7
165	60514	11.969557588785	7
165	61079	12.069556370713	7
165	61636	12.169555152838	7
165	62193	12.269566935147	7
165	62750	12.369565717627	7
165	63307	12.469564500253	7
165	63864	12.569563282996	7
165	64421	12.669562065819	7
165	64978	12.769560848688	7
165	65535	12.869559631567	7
165	66092	12.969558414422	7
165	66657	13.069557197225	7
165	67214	13.169555979951	7
165	67771	13.269554762583	7
165	68328	13.369566545102	7
165	68885	13.469565327493	7
165	69442	13.569564109746	7
165	69999	13.669562891846	7
165	70556	13.769561673783	7
165	71113	13.869560455549	7
165	71670	13.969559237136	7
165	72235	14.069558018535	7
165	72792	14.169556799739	7
165	73349	14.269555580741	7
165	73906	14.369554361534	7
165	74463	14.469566142114	7
165	75020	14.569564922472	7
165	75577	14.66956370261	7
165	76134	14.769562482537	7
165	76691	14.869561262266	7
165	77248	14.969560041818	7
165	77813	15.069558821223	7
165	78370	15.169557600514	7
165	78927	15.26955637973	7
165	79484	15.369555158907	7
165	80041	15.469566938081	7
165	80598	15.569565717281	7
165	81155	15.669564496534	7
165	81712	15.769563275858	7
165	82269	15.869562055273	7
165	82826	15.969560834795	7
165	83391	16.069559614439	7
165	83948	16.169558394217	7
165	84505	16.269557174139	7
165	85062	16.369555954214	7
165	85619	16.469554734452	7
165	86176	16.569566514863	7
165	86733	16.669565295453	7
165	87290	16.769564076231	7
165	87847	16.869562857205	7
165	88404	16.969561638378	7
165	88969	17.069560419756	7
165	89526	17.169559201339	7
165	90083	17.269557983122	7
165	90640	17.369556765086	7
165	91197	17.469555547209	7
165	91754	17.569554329463	7
165	92311	17.669566111813	7
165	92868	17.769564894223	7
165	93425	17.869563676655	7
165	93982	17.969562459076	7
165	94547	18.069561241457	7
165	95104	18.169560023773	7
165	95661	18.269558806004	7
165	96218	18.369557588131	7
165	96775	18.469556370138	7
165	97332	18.569555152014	7
165	97889	18.669566933745	7
165	98446	18.769565715321	7
165	99003	18.869564496734	7
165	99560	18.969563277974	7
165	100125	19.069562059031	7
165	100682	19.1695608399	7
165	101239	19.269559620572	7
165	101796	19.369558401042	7
165	102353	19.469557181301	7
165	102910	19.569555961348	7
165	103467	19.669554741179	7
165	104024	19.769566520805	7
165	104581	19.869565300241	7
165	105138	19.969564079508	7
165	105703	20.069562858635	7
165	106260	20.16956163766	7
165	106817	20.269560416615	7
165	107374	20.369559195538	7
165	107931	20.469557974465	7
165	108488	20.569556753424	7
165	109045	20.669555532441	7
165	109602	20.769554311536	7
165	110159	20.869566090729	7
165	110716	20.969564870033	7
165	111281	21.069563649465	7
165	111838	21.169562429036	7
165	112395	21.269561208754	7
165	112952	21.369559988631	7
165	113509	21.469558768677	7
165	114066	21.569557548898	7
165	114623	21.669556329302	7
165	115180	21.769555109898	7
165	115737	21.869566890692	7
165	116294	21.969565671691	7
165	116859	22.0695644529	7
165	117416	22.169563234316	7
165	117973	22.269562015936	7
165	118530	22.369560797742	7
165	119087	22.469559579711	7
165	119644	22.569558361817	7
165	120201	22.669557144022	7
165	120758	22.76955592629	7
165	121315	22.869554708585	7
165	121872	22.969566490875	7
165	122437	23.069565273127	7
165	122994	23.169564055316	7
165	123551	23.269562837424	7
165	124108	23.369561619431	7
165	124665	23.469560401322	7
165	125222	23.569559183082	7
165	125779	23.669557964703	7
165	126336	23.769556746171	7
165	126893	23.869555527478	7
165	127450	23.969554308614	7
165	128015	24.069566089572	7
165	128572	24.169564870343	7
165	129129	24.269563650921	7
165	129686	24.369562431298	7
165	130243	24.469561211468	7
165	130800	24.569559991426	7
165	131357	24.669558771173	7
165	131914	24.769557550716	7
165	132471	24.869556330069	7
165	133028	24.969555109257	7
165	133593	25.069566888308	7
165	134150	25.169565667257	7
165	134707	25.269564446139	7
165	135264	25.369563224992	7
165	135821	25.46956200385	7
165	136378	25.569560782741	7
165	136935	25.669559561693	7
165	137492	25.769558340727	7
165	138049	25.86955711986	7
165	138606	25.969555899107	7
165	139171	26.069554678481	7
165	139728	26.169566457996	7
165	140285	26.269565237661	7
165	140842	26.369564017485	7
165	141399	26.469562797479	7
165	141956	26.56956157765	7
165	142513	26.669560358007	7
165	143070	26.769559138557	7
165	143627	26.869557919307	7
165	144184	26.969556700261	7
165	144749	27.069555481427	7
165	145306	27.169554262802	7
165	145863	27.269566044381	7
165	146420	27.369564826147	7
165	146977	27.469563608078	7
165	147534	27.569562390145	7
165	148091	27.669561172314	7
165	148648	27.769559954546	7
165	149205	27.869558736807	7
165	149762	27.969557519062	7
165	150327	28.069556301282	7
165	150884	28.16955508344	7
165	151441	28.269566865517	7
165	151998	28.369565647495	7
165	152555	28.469564429357	7
165	153112	28.569563211092	7
165	153669	28.669561992686	7
165	154226	28.769560774129	7
165	154783	28.869559555411	7
165	155340	28.969558336523	7
165	155905	29.069557117457	7
165	156462	29.169555898206	7
165	157019	29.269554678761	7
165	157576	29.369566459115	7
165	158133	29.469565239263	7
165	158690	29.569564019201	7
165	159247	29.669562798927	7
165	159804	29.769561578451	7
165	160361	29.869560357786	7
165	160918	29.969559136957	7
165	161483	30.069557915992	7
165	162040	30.169556694924	7
165	162597	30.269555473789	7
165	163154	30.369554252628	7
165	163711	30.469566031471	7
165	164268	30.569564810349	7
165	164825	30.669563589289	7
165	165382	30.769562368309	7
165	165939	30.869561147429	7
165	166496	30.969559926663	7
165	167061	31.069558706026	7
165	167618	31.169557485529	7
165	168175	31.269556265182	7
165	168732	31.369555044995	7
165	169289	31.469566824979	7
165	169846	31.56956560514	7
165	170403	31.669564385486	7
165	170960	31.769563166025	7
165	171517	31.869561946764	7
165	172074	31.96956072771	7
165	172639	32.069559508866	7
165	173196	32.169558290232	7
165	173753	32.269557071804	7
165	174310	32.369555853562	7
165	174867	32.469554635487	7
165	175424	32.569566417546	7
165	175981	32.669565199707	7
165	176538	32.769563981932	7
165	177095	32.869562764179	7
165	177652	32.969561546407	7
165	178217	33.069560328575	7
165	178774	33.169559110643	7
165	179331	33.269557892566	7
165	179888	33.369556674305	7
165	180445	33.469555455818	7
165	181002	33.569554237064	7
165	181559	33.669566018002	7
165	182116	33.76956479859	7
165	182673	33.869563578787	7
165	183230	33.969562358552	7
165	183795	34.069561137845	7
165	184352	34.169559916624	7
165	184909	34.269558694847	7
165	185466	34.369557472472	7
165	186023	34.469556249459	7
165	186580	34.569555025771	7
165	187137	34.669566801372	7
165	187694	34.769565576237	7
165	188251	34.869564350355	7
165	188808	34.969563123732	7
165	189373	35.069561896389	7
165	189930	35.169560668367	7
165	190487	35.269559439727	7
165	191044	35.369558210545	7
165	191601	35.469556980912	7
165	192158	35.56955575093	7
165	192715	35.66955452071	7
165	193272	35.769566290369	7
165	193829	35.86956506003	7
165	194386	35.969563829825	7
165	194951	36.069562599886	7
165	195508	36.169561370346	7
165	196065	36.269560141346	7
165	196622	36.369558913023	7
165	197179	36.469557685522	7
165	197736	36.569556458984	7
165	198293	36.669555233553	7
165	198850	36.769567009371	7
165	199407	36.869565786585	7
165	199964	36.969564565339	7
165	200529	37.069563345776	7
165	201086	37.169562128034	7
165	201643	37.269560912242	7
165	202200	37.369559698514	7
165	202757	37.469558486951	7
165	203314	37.569557277634	7
165	203871	37.669556070623	7
165	204428	37.769554865959	7
165	204985	37.869566663671	7
165	205542	37.969565463769	7
165	206107	38.069564266253	7
165	206664	38.16956307111	7
165	207221	38.269561878322	7
165	207778	38.369560687864	7
165	208335	38.469559499706	7
165	208892	38.569558313814	7
165	209449	38.669557130147	7
165	210006	38.769555948664	7
165	210563	38.86955476932	7
165	211120	38.969566592066	7
165	211685	39.069565416852	7
165	212242	39.169564243629	7
165	212799	39.269563072341	7
165	213356	39.369561902934	7
165	213913	39.46956073535	7
165	214470	39.569559569535	7
165	215027	39.669558405438	7
165	215584	39.769557243015	7
165	216141	39.869556082236	7
165	216698	39.969554923085	7
165	217263	40.06956676556	7
165	217820	40.169565609681	7
165	218377	40.269564455484	7
165	218934	40.369563303021	7
165	219491	40.469562152359	7
165	220048	40.569561003573	7
165	220605	40.669559856747	7
165	221162	40.769558711973	7
165	221719	40.869557569347	7
165	222276	40.969556428968	7
165	222841	41.069555290942	7
165	223398	41.169567155372	7
165	223955	41.269566022366	7
165	224512	41.369564892035	7
165	225069	41.469563764491	7
165	225626	41.569562639842	7
165	226183	41.669561518201	7
165	226740	41.769560399682	7
165	227297	41.869559284394	7
165	227854	41.969558172452	7
165	228419	42.069557063965	7
165	228976	42.169555959038	7
165	229533	42.269554857766	7
165	230090	42.369566760228	7
165	230647	42.469565666492	7
165	231204	42.569564576604	7
165	231761	42.669563490592	7
165	232318	42.769562408465	7
165	232875	42.869561330214	7
165	233432	42.969560255815	7
165	233997	43.069559185234	7
165	234554	43.169558118426	7
165	235111	43.269557055338	7
165	235668	43.36955599591	7
165	236225	43.469554940079	7
165	236782	43.569566887774	7
165	237339	43.669565838924	7
165	237896	43.769564793451	7
165	238453	43.869563751275	7
165	239010	43.969562712318	7
165	239575	44.069561676494	7
165	240132	44.16956064372	7
165	240689	44.269559613906	7
165	241246	44.369558586968	7
165	241803	44.469557562815	7
165	242360	44.569556541359	7
165	242917	44.669555522517	7
165	243474	44.769554506213	7
165	244031	44.869566492385	7
165	244588	44.969565480985	7
165	245153	45.06956447198	7
165	245710	45.16956346536	7
165	246267	45.269562461129	7
165	246824	45.369561459311	7
165	247381	45.469560459938	7
165	247938	45.569559463058	7
165	248495	45.669558468726	7
165	249052	45.769557477004	7
165	249609	45.869556487957	7
165	250166	45.969555501659	7
165	250731	46.069554518184	7
165	251288	46.169566537611	7
165	251845	46.269565560022	7
165	252402	46.369564585497	7
165	252959	46.469563614119	7
165	253516	46.569562645974	7
165	254073	46.669561681146	7
165	254630	46.769560719723	7
165	255187	46.869559761791	7
165	255744	46.969558807437	7
165	256309	47.069557856747	7
165	256866	47.1695569098	7
165	257423	47.269555966667	7
165	257980	47.369555027406	7
165	258537	47.469567092059	7
165	259094	47.569566160649	7
165	259651	47.669565233184	7
165	260208	47.76956430965	7
165	260765	47.869563390015	7
165	261322	47.969562474234	7
165	261887	48.069561562252	7
165	262444	48.169560654003	7
165	263001	48.269559749412	7
165	263558	48.369558848401	7
165	264115	48.469557950885	7
165	264672	48.569557056776	7
165	265229	48.669556165982	7
165	265786	48.76955527841	7
165	266343	48.86955439396	7
165	266900	48.969566512533	7
165	267465	49.06956563403	7
165	268022	49.169564758347	7
165	268579	49.269563885382	7
165	269136	49.369563015029	7
165	269693	49.469562147184	7
165	270250	49.569561281742	7
165	270807	49.669560418605	7
165	271364	49.769559557682	7
165	271921	49.869558698896	7
165	272478	49.969557842184	7
165	273043	50.0695569875	7
165	273600	50.169556134819	7
165	274157	50.269555284131	7
165	274714	50.369554435447	7
165	275271	50.46956658879	7
165	275828	50.569565744191	7
165	276385	50.669564901695	7
165	276942	50.769564061349	7
165	277499	50.86956322321	7
165	278056	50.969562387338	7
165	278621	51.069561553796	7
165	279178	51.169560722653	7
165	279735	51.26955989398	7
165	280292	51.369559067847	7
165	280849	51.469558244329	7
165	281406	51.5695574235	7
165	281963	51.669556605436	7
165	282520	51.769555790215	7
165	283077	51.869554977914	7
165	283634	51.969567168614	7
165	284199	52.069566362389	7
165	284756	52.169565559314	7
165	285313	52.269564759449	7
165	285870	52.369563962844	7
165	286427	52.469563169535	7
165	286984	52.56956237954	7
165	287541	52.669561592858	7
165	288098	52.769560809467	7
165	288655	52.869560029331	7
165	289212	52.969559252398	7
165	289777	53.069558478605	7
165	290334	53.169557707883	7
165	290891	53.269556940154	7
165	291448	53.369556175329	7
165	292005	53.469555413323	7
165	292562	53.569554654042	7
165	293119	53.669566897387	7
165	293676	53.769566143262	7
165	294233	53.869565391564	7
165	294790	53.969564642188	7
165	295355	54.06956389503	7
165	295912	54.169563149988	7
165	296469	54.269562406953	7
165	297026	54.369561665816	7
165	297583	54.469560926468	7
165	298140	54.569560188803	7
165	298697	54.66955945272	7
165	299254	54.769558718127	7
165	299811	54.869557984943	7
165	300368	54.969557253102	7
165	300933	55.069556522558	7
165	301490	55.169555793284	7
165	302047	55.269555065267	7
165	302604	55.369554338517	7
165	303161	55.469566613054	7
165	303718	55.569565888909	7
165	304275	55.669565166125	7
165	304832	55.769564444749	7
165	305389	55.869563724838	7
165	305946	55.969563006449	7
165	306511	56.069562289647	7
165	307068	56.169561574499	7
165	307625	56.269560861076	7
165	308182	56.369560149448	7
165	308739	56.469559439687	7
165	309296	56.569558731871	7
165	309853	56.669558026073	7
165	310410	56.769557322373	7
165	310967	56.869556620849	7
165	311524	56.969555921579	7
165	312089	57.069555224642	7
165	312646	57.169554530109	7
165	313203	57.269566838044	7
165	313760	57.369566148498	7
165	314317	57.469565461508	7
165	314874	57.569564777093	7
165	315431	57.66956409525	7
165	315988	57.769563415961	7
165	316545	57.86956273919	7
165	317102	57.969562064888	7
165	317667	58.069561392994	7
165	318224	58.169560723438	7
165	318781	58.269560056144	7
165	319338	58.369559391028	7
165	319895	58.469558728003	7
165	320452	58.569558066979	7
165	321009	58.669557407858	7
165	321566	58.769556750546	7
165	322123	58.869556094944	7
165	322680	58.969555440947	7
165	323245	59.069554788455	7
165	323802	59.169567137363	7
165	324359	59.26956648757	7
165	324916	59.369565838968	7
165	325473	59.469565191449	7
165	326030	59.569564544912	7
165	326587	59.669563899257	7
165	327144	59.769563254392	7
165	327701	59.869562610243	7
165	328258	59.969561966745	7
164	5063	2	0
164	10631	3	0
164	16199	4	0
164	21768	5	0
164	27345	6	0
164	32923	7	0
164	38501	8	0
164	44079	9	0
164	49657	10	0
164	55235	11	0
164	60813	12	0
164	66391	13	0
164	71969	14	0
164	77547	15	0
164	83125	16	0
164	88703	17	0
164	94281	18	0
164	99859	19	0
164	105437	20	0
164	111015	21	0
164	116593	22	0
164	122171	23	0
164	127749	24	0
164	133327	25	0
164	138905	26	0
164	144483	27	0
164	150061	28	0
164	155639	29	0
164	161217	30	0
164	166795	31	0
164	172373	32	0
164	177951	33	0
164	183529	34	0
164	189107	35	0
164	194685	36	0
164	200263	37	0
164	205841	38	0
164	211419	39	0
164	216997	40	0
164	222575	41	0
164	228153	42	0
164	233731	43	0
164	239309	44	0
164	244887	45	0
164	250465	46	0
164	256043	47	0
164	261621	48	0
164	267199	49	0
164	272777	50	0
164	278355	51	0
164	283933	52	0
164	289511	53	0
164	295089	54	0
164	300667	55	0
164	306245	56	0
164	311823	57	0
164	317401	58	0
164	322979	59	0
164	328557	60	0
163	5063	2	0.022754065202
163	10631	3	0.0262491946
163	16199	4	0.0262621946
163	21768	5	0.0262491946
163	27345	6	0.026249193095
163	32923	7	0.026249178851
163	38501	8	0.026249162845
163	44079	9	0.02624916897
163	49657	10	0.026249187555
163	55235	11	0.026249200058
163	60813	12	0.026249189902
163	66391	13	0.026249173866
163	71969	14	0.026249177781
163	77547	15	0.026249196221
163	83125	16	0.026249207111
163	88703	17	0.026249195758
163	94281	18	0.026249178739
163	99859	19	0.026249181547
163	105437	20	0.026262199331
163	111015	21	0.026249209524
163	116593	22	0.026249197656
163	122171	23	0.026249180229
163	127749	24	0.026249182688
163	133327	25	0.026249200207
163	138905	26	0.026249210189
163	144483	27	0.026249198151
163	150061	28	0.026249180604
163	155639	29	0.026249182961
163	161217	30	0.026249200411
163	166795	31	0.026249210329
163	172373	32	0.026249198256
163	177951	33	0.026249180678
163	183529	34	0.026249187906
163	189107	35	0.026249234527
163	194685	36	0.026262292445
163	200263	37	0.026249261409
163	205841	38	0.026249096468
163	211419	39	0.026248864108
163	216997	40	0.026248658681
163	222575	41	0.026248481472
163	228153	42	0.02624824221
163	233731	43	0.0262479011
163	239309	44	0.026247526776
163	244887	45	0.026260213501
163	250465	46	0.026246960845
163	256043	47	0.026246675742
163	261621	48	0.026246315055
163	267199	49	0.026258943777
163	272777	50	0.026245652548
163	278355	51	0.026245437444
163	283933	52	0.02625820219
163	289511	53	0.026244900711
163	295089	54	0.026257595472
163	300667	55	0.026244374872
163	306245	56	0.026244233122
163	311823	57	0.026257072386
163	317401	58	0.026243845327
163	322979	59	0.026256613364
163	328557	60	0.026243464109
162	5063	2	7
162	10631	3	7
162	16199	4	7
162	21768	5	7
162	27345	6	7
162	32923	7	7
162	38501	8	7
162	44079	9	7
162	49657	10	7
162	55235	11	7
162	60813	12	7
162	66391	13	7
162	71969	14	7
162	77547	15	7
162	83125	16	7
162	88703	17	7
162	94281	18	7
162	99859	19	7
162	105437	20	7
162	111015	21	7
162	116593	22	7
162	122171	23	7
162	127749	24	7
162	133327	25	7
162	138905	26	7
162	144483	27	7
162	150061	28	7
162	155639	29	7
162	161217	30	7
162	166795	31	7
162	172373	32	7
162	177951	33	7
162	183529	34	7
162	189107	35	7
162	194685	36	7
162	200263	37	7
162	205841	38	7
162	211419	39	7
162	216997	40	7
162	222575	41	7
162	228153	42	7
162	233731	43	7
162	239309	44	7
162	244887	45	7
162	250465	46	7
162	256043	47	7
162	261621	48	7
162	267199	49	7
162	272777	50	7
162	278355	51	7
162	283933	52	7
162	289511	53	7
162	295089	54	7
162	300667	55	7
162	306245	56	7
162	311823	57	7
162	317401	58	7
162	322979	59	7
162	328557	60	7
