file 1687859 1501597222                                         
version 2
run SinusoidalJammingDetail-118-20170801-16:19:51-67662
attr CACCSpacing 11
attr attackAcc -30
attr attackPos 7
attr attackSpeed 150
attr attackStart 32.5
attr attacker 1
attr beaconInterval 0.1
attr configname SinusoidalJammingDetail
attr controller 1
attr datetime 20170801-16:19:51
attr experiment SinusoidalJammingDetail
attr fakeAcc "(1 == 4)"
attr fakePos "(1 == 2)"
attr fakeSpeed "(1 == 3)"
attr inifile omnetpp_118.ini
attr iterationvars "$leaderSpeed=50, $controller=1, $CACCSpacing=11, $sController=\"CACC\", $attacker=1, $attackStart=32.5, $attackSpeed=150, $attackPos=7, $attackAcc=-30, $0=11, $1=0, $nCars=8, $platoonSize=8, $nLanes=1, $beaconInterval=0.1, $priority=2, $packetSize=200, $ploegH=0.5, $leaderHeadway=1.2, $fakeSpeed=(1 == 3), $fakeAcc=(1 == 4), $fakePos=(1 == 2)"
attr iterationvarsf leaderSpeed=50,controller=1,CACCSpacing=11,sController=CACC,attacker=1,attackStart=32.5,attackSpeed=150,attackPos=7,attackAcc=-30,11,0,nCars=8,platoonSize=8,nLanes=1,beaconInterval=0.1,priority=2,packetSize=200,ploegH=0.5,leaderHeadway=1.2,fakeSpeed=(1_==_3),fakeAcc=(1_==_4),fakePos=(1_==_2)-
attr leaderHeadway 1.2
attr leaderSpeed 50
attr measurement "$leaderSpeed=50, $controller=1, $CACCSpacing=11, $sController=\"CACC\", $attacker=1, $attackStart=32.5, $attackSpeed=150, $attackPos=7, $attackAcc=-30, $0=11, $1=0, $nCars=8, $platoonSize=8, $nLanes=1, $beaconInterval=0.1, $priority=2, $packetSize=200, $ploegH=0.5, $leaderHeadway=1.2, $fakeSpeed=(1 == 3), $fakeAcc=(1 == 4), $fakePos=(1 == 2)"
attr nCars 8
attr nLanes 1
attr network scenario
attr packetSize 200
attr platoonSize 8
attr ploegH 0.5
attr priority 2
attr processid 67662
attr repetition 3
attr replication #3
attr resultdir results
attr runnumber 118
attr sController "\"CACC\""
attr seedset 3
param **.coreDebug false
param **.debug false
param **.headway 0.1s
param **.numberOfCars 8
param **.numberOfCarsPerPlatoon 8
param **.numberOfLanes 1
param **.numericController 1
param **.traffic.nCars 8
param **.traffic.nLanes 1
param **.traffic.platoonInsertDistance 11m
param **.traffic.platoonInsertHeadway 0s
param **.traffic.platoonInsertSpeed 50kmph
param **.traffic.platoonInsertTime "1 s"
param **.traffic.platoonLeaderHeadway 1.2s
param **.traffic.platoonSize 8
param **.traffic.platooningVType "\"vtypeauto\""
param **.traffic_type "\"PlatoonsTrafficManager\""
param *.**.nic.mac1609_4.bitrate 6Mbps
param *.**.nic.mac1609_4.txPower 100mW
param *.**.nic.mac1609_4.useServiceChannel false
param *.**.nic.phy80211p.analogueModels "xmldoc(\"config.xml\")"
param *.**.nic.phy80211p.decider "xmldoc(\"config.xml\")"
param *.**.nic.phy80211p.maxTXPower 100mW
param *.**.nic.phy80211p.sensitivity -94dBm
param *.**.nic.phy80211p.thermalNoise -95dBm
param *.**.nic.phy80211p.usePropagationDelay true
param *.**.nic.phy80211p.useThermalNoise true
param *.annotations.draw false
param *.connectionManager.alpha 2.0
param *.connectionManager.carrierFrequency "5.890e9 Hz"
param *.connectionManager.pMax 100mW
param *.connectionManager.sat -94dBm
param *.connectionManager.sendDirect true
param *.manager.autoShutdown true
param *.manager.commandLine "\"sumo --remote-port $port --seed $seed --configuration-file $configFile\""
param *.manager.configFile "\"./sumocfg/freeway.sumo.cfg\""
param *.manager.host "\"localhost\""
param *.manager.margin 25
param *.manager.moduleDisplayString "\"\""
param *.manager.moduleName "\"node\""
param *.manager.moduleType "\"Car\""
param *.manager.updateInterval 0.01s
param *.node[*].appl.attackStart 32.5s
param *.node[*].appl.attackerType 1
param *.node[*].appl.simulationDuration "60 s"
param *.node[*].appl_type "\"SimplePlatooningApp\""
param *.node[*].helper.nCars 8
param *.node[*].helper.nLanes 1
param *.node[*].helper.platoonSize 8
param *.node[*].helper_type "\"PositionHelper\""
param *.node[*].mobility.x 0
param *.node[*].mobility.y 0
param *.node[*].mobility.z 1.895
param *.node[*].prot.attackStart 32.5s
param *.node[*].prot.attackerType 1
param *.node[*].prot.attackingNode 3
param *.node[*].prot.beaconingInterval 0.1s
param *.node[*].prot.fakeAcc "(1 == 4)"
param *.node[*].prot.fakePos "(1 == 2)"
param *.node[*].prot.fakeSpeed "(1 == 3)"
param *.node[*].prot.maliciousAcc "-30 mpss"
param *.node[*].prot.maliciousSpeed 150kmph
param *.node[*].prot.packetSize 200
param *.node[*].prot.priority 2
param *.node[*].prot.shiftX "7 m"
param *.node[*].prot.useControllerAcceleration true
param *.node[*].protocol_type "\"SimplePlatooningBeaconing\""
param *.node[*].scenario.accHeadway 0.1s
param *.node[*].scenario.caccC1 0.5
param *.node[*].scenario.caccOmegaN "0.2 Hz"
param *.node[*].scenario.caccSpacing 11m
param *.node[*].scenario.caccXi 1
param *.node[*].scenario.controller "\"CACC\""
param *.node[*].scenario.engineTau "0.5 s"
param *.node[*].scenario.leaderHeadway 1.2s
param *.node[*].scenario.leaderOscillationFrequency "0.2 Hz"
param *.node[*].scenario.leaderSpeed 50kmph
param *.node[*].scenario.oscillationAmplitude "10 kmph"
param *.node[*].scenario.ploegH 0.5s
param *.node[*].scenario.ploegKd 0.7
param *.node[*].scenario.ploegKp 0.2
param *.node[*].scenario.startOscillating "5 s"
param *.node[*].scenario.useRealisticEngine false
param *.node[*].scenario_type "\"SinusoidalScenario\""
param *.node[*].unicast.packetLossRate 0
param *.obstacles.debug false
param *.playgroundSizeX 65000m
param *.playgroundSizeY 25000m
param *.playgroundSizeZ 50m
param *.world.use2D false
param *.world.useTorus false

vector 0  scenario.node[0].appl  distance  ETV
vector 1  scenario.node[0].appl  relativeSpeed  ETV
vector 2  scenario.node[0].appl  nodeId  ETV
vector 6  scenario.node[0].appl  acceleration  ETV
vector 7  scenario.node[0].appl  controllerAcceleration  ETV
vector 3  scenario.node[0].appl  speed  ETV
vector 4  scenario.node[0].appl  posx  ETV
vector 5  scenario.node[0].appl  posy  ETV
vector 22  scenario.node[1].appl  distance  ETV
vector 23  scenario.node[1].appl  relativeSpeed  ETV
vector 24  scenario.node[1].appl  nodeId  ETV
vector 28  scenario.node[1].appl  acceleration  ETV
vector 29  scenario.node[1].appl  controllerAcceleration  ETV
vector 25  scenario.node[1].appl  speed  ETV
vector 26  scenario.node[1].appl  posx  ETV
vector 27  scenario.node[1].appl  posy  ETV
vector 44  scenario.node[2].appl  distance  ETV
vector 45  scenario.node[2].appl  relativeSpeed  ETV
vector 46  scenario.node[2].appl  nodeId  ETV
vector 50  scenario.node[2].appl  acceleration  ETV
vector 51  scenario.node[2].appl  controllerAcceleration  ETV
vector 47  scenario.node[2].appl  speed  ETV
vector 48  scenario.node[2].appl  posx  ETV
vector 49  scenario.node[2].appl  posy  ETV
vector 66  scenario.node[3].appl  distance  ETV
vector 67  scenario.node[3].appl  relativeSpeed  ETV
vector 68  scenario.node[3].appl  nodeId  ETV
vector 72  scenario.node[3].appl  acceleration  ETV
vector 73  scenario.node[3].appl  controllerAcceleration  ETV
vector 69  scenario.node[3].appl  speed  ETV
vector 70  scenario.node[3].appl  posx  ETV
vector 71  scenario.node[3].appl  posy  ETV
vector 88  scenario.node[4].appl  distance  ETV
vector 89  scenario.node[4].appl  relativeSpeed  ETV
vector 90  scenario.node[4].appl  nodeId  ETV
vector 94  scenario.node[4].appl  acceleration  ETV
vector 95  scenario.node[4].appl  controllerAcceleration  ETV
vector 91  scenario.node[4].appl  speed  ETV
vector 92  scenario.node[4].appl  posx  ETV
vector 93  scenario.node[4].appl  posy  ETV
vector 110  scenario.node[5].appl  distance  ETV
vector 111  scenario.node[5].appl  relativeSpeed  ETV
vector 112  scenario.node[5].appl  nodeId  ETV
vector 116  scenario.node[5].appl  acceleration  ETV
vector 117  scenario.node[5].appl  controllerAcceleration  ETV
vector 113  scenario.node[5].appl  speed  ETV
vector 114  scenario.node[5].appl  posx  ETV
vector 115  scenario.node[5].appl  posy  ETV
vector 132  scenario.node[6].appl  distance  ETV
vector 133  scenario.node[6].appl  relativeSpeed  ETV
vector 134  scenario.node[6].appl  nodeId  ETV
vector 138  scenario.node[6].appl  acceleration  ETV
vector 139  scenario.node[6].appl  controllerAcceleration  ETV
vector 135  scenario.node[6].appl  speed  ETV
vector 136  scenario.node[6].appl  posx  ETV
vector 137  scenario.node[6].appl  posy  ETV
vector 154  scenario.node[7].appl  distance  ETV
vector 155  scenario.node[7].appl  relativeSpeed  ETV
vector 156  scenario.node[7].appl  nodeId  ETV
vector 160  scenario.node[7].appl  acceleration  ETV
vector 161  scenario.node[7].appl  controllerAcceleration  ETV
vector 157  scenario.node[7].appl  speed  ETV
vector 158  scenario.node[7].appl  posx  ETV
vector 159  scenario.node[7].appl  posy  ETV
vector 35  scenario.node[1].prot  leaderDelay  ETV
vector 33  scenario.node[1].prot  leaderDelayId  ETV
vector 36  scenario.node[1].prot  frontDelay  ETV
vector 34  scenario.node[1].prot  frontDelayId  ETV
vector 57  scenario.node[2].prot  leaderDelay  ETV
vector 55  scenario.node[2].prot  leaderDelayId  ETV
vector 79  scenario.node[3].prot  leaderDelay  ETV
vector 77  scenario.node[3].prot  leaderDelayId  ETV
vector 101  scenario.node[4].prot  leaderDelay  ETV
vector 99  scenario.node[4].prot  leaderDelayId  ETV
vector 123  scenario.node[5].prot  leaderDelay  ETV
vector 121  scenario.node[5].prot  leaderDelayId  ETV
vector 145  scenario.node[6].prot  leaderDelay  ETV
vector 143  scenario.node[6].prot  leaderDelayId  ETV
vector 167  scenario.node[7].prot  leaderDelay  ETV
vector 165  scenario.node[7].prot  leaderDelayId  ETV
vector 168  scenario.node[7].prot  frontDelay  ETV
vector 166  scenario.node[7].prot  frontDelayId  ETV
vector 58  scenario.node[2].prot  frontDelay  ETV
vector 56  scenario.node[2].prot  frontDelayId  ETV
vector 124  scenario.node[5].prot  frontDelay  ETV
vector 122  scenario.node[5].prot  frontDelayId  ETV
vector 80  scenario.node[3].prot  frontDelay  ETV
vector 78  scenario.node[3].prot  frontDelayId  ETV
vector 146  scenario.node[6].prot  frontDelay  ETV
vector 144  scenario.node[6].prot  frontDelayId  ETV
vector 102  scenario.node[4].prot  frontDelay  ETV
vector 100  scenario.node[4].prot  frontDelayId  ETV
vector 8  scenario.node[0].prot  nodeId  ETV
vector 9  scenario.node[0].prot  busyTime  ETV
vector 10  scenario.node[0].prot  collisions  ETV
vector 30  scenario.node[1].prot  nodeId  ETV
vector 31  scenario.node[1].prot  busyTime  ETV
vector 32  scenario.node[1].prot  collisions  ETV
vector 52  scenario.node[2].prot  nodeId  ETV
vector 53  scenario.node[2].prot  busyTime  ETV
vector 54  scenario.node[2].prot  collisions  ETV
vector 74  scenario.node[3].prot  nodeId  ETV
vector 75  scenario.node[3].prot  busyTime  ETV
vector 76  scenario.node[3].prot  collisions  ETV
vector 96  scenario.node[4].prot  nodeId  ETV
vector 97  scenario.node[4].prot  busyTime  ETV
vector 98  scenario.node[4].prot  collisions  ETV
vector 118  scenario.node[5].prot  nodeId  ETV
vector 119  scenario.node[5].prot  busyTime  ETV
vector 120  scenario.node[5].prot  collisions  ETV
vector 140  scenario.node[6].prot  nodeId  ETV
vector 141  scenario.node[6].prot  busyTime  ETV
vector 142  scenario.node[6].prot  collisions  ETV
vector 162  scenario.node[7].prot  nodeId  ETV
vector 163  scenario.node[7].prot  busyTime  ETV
vector 164  scenario.node[7].prot  collisions  ETV
7	11247 13860 232 328174 1.11 59.91 589 -1.5 1.5 -14.445969899918 993.24092361736
6	25107 18587 232 328174 1.11 59.91 589 -1.472274679513 1.4513434175798 -12.507264912644 675.29835211523
5	43694 12081 232 328174 1.11 59.91 589 36.55 36.55 21527.95 786846.5725
4	55775 17923 232 328174 1.11 59.91 589 145.73484382616 966.71764232411 328437.02615113 216190736.28249
3	73698 17901 232 328174 1.11 59.91 589 12.599076970844 15.853603639796 8223.2832500118 115251.79065057
1	91599 9725 232 328174 1.11 59.91 589 0 0 0 0
0	101324 10314 232 328174 1.11 59.91 589 -1 -1 -589 589
2	111638 9725 232 328174 1.11 59.91 589 0 0 0 0
10	121363 858 5056 328550 2 60 59 0 0 0 0
9	122221 1553 5056 328550 2 60 59 0.022762592108 0.026257055515 1.545259977543 0.040483625538891
8	123774 799 5056 328550 2 60 59 0 0 0 0
29	124573 19460 233 328175 1.11 59.91 589 -1.5233934268137 1.5241492075817 -0.31763428916757 515.88293268371
28	144033 19507 233 328175 1.11 59.91 589 -1.4872877097888 1.4632119896701 -0.42257360835904 351.42342077535
27	163540 12670 233 328175 1.11 59.91 589 36.55 36.55 21527.95 786846.5725
26	176210 18501 233 328175 1.11 59.91 589 130.73484382629 941.80450926802 318163.95192703 204066223.86984
25	194711 18495 233 328175 1.11 59.91 589 12.591606548197 15.859016035216 8124.5706281294 112392.46189624
23	213206 19702 233 328175 1.11 59.91 589 -1.2679196183044 2.1732908289493 98.837694531553 294.96684481173
22	232908 18488 233 328175 1.11 59.91 589 8.8020561690195 21.50900751672 7915.099971654 114688.84802624
24	251396 10314 233 328175 1.11 59.91 589 1 1 589 589
36	261710 23616 836 328222 1.269558350935 59.969555656787 588 0.09999928995 0.100012763157 58.799996606752 5.8799993255252
35	285326 23616 836 328222 1.269558350935 59.969555656787 588 0.09999928995 0.100012763157 58.799996606752 5.8799993255252
34	308942 16110 836 328222 1.269558350935 59.969555656787 588 1 1 588 588
33	325052 16110 836 328222 1.269558350935 59.969555656787 588 1 1 588 588
32	341162 858 5057 328551 2 60 59 0 0 0 0
31	342020 1611 5057 328551 2 60 59 0.022762642142 0.026257057889 1.545260060321 0.040483629535999
30	343631 858 5057 328551 2 60 59 1 1 59 59
51	344489 19393 234 328176 1.11 59.91 589 -1.5293286664503 1.5293868173144 -1.4118812253466 520.18799243231
50	363882 19471 234 328176 1.11 59.91 589 -1.4784118245238 1.4535038977423 -1.5440932159574 350.80815510067
49	383353 12670 234 328176 1.11 59.91 589 36.55 36.55 21527.95 786846.5725
48	396023 18510 234 328176 1.11 59.91 589 115.73484382629 919.3869866703 308283.2099627 192957897.20386
47	414533 18503 234 328176 1.11 59.91 589 12.543722137158 15.85283829318 8050.3560990586 110435.28151011
45	433036 19955 234 328176 1.11 59.91 589 -0.011889529084176 0.47855234566771 74.218754806821 26.334002528474
44	452991 18480 234 328176 1.11 59.91 589 10.982573884476 18.415275418886 7523.257673757 100136.4814423
46	471471 10314 234 328176 1.11 59.91 589 2 2 1178 2356
58	481785 23614 1046 328426 1.299190001385 59.999187575016 588 0.099999290121 0.100012789114 58.799996874531 5.879999379084
57	505399 23619 842 328228 1.269558400969 59.969555731583 588 0.099999289984 0.100012763225 58.799996631514 5.8799993304776
56	529018 16110 1046 328426 1.299190001385 59.999187575016 588 2 2 1176 2352
55	545128 16123 842 328228 1.269558400969 59.969555731583 588 2 2 1176 2352
54	561251 858 5058 328552 2 60 59 0 0 0 0
53	562109 1613 5058 328552 2 60 59 0.022762692177 0.026257058412 1.545260135128 0.040483633114394
52	563722 858 5058 328552 2 60 59 2 2 118 236
73	564580 19371 235 328177 1.11 59.91 589 -1.4888807671563 1.4893729309424 -2.7997282239246 487.99929917627
72	583951 19432 235 328177 1.11 59.91 589 -1.4638941791313 1.4373649657115 -2.9963391898715 345.81742728398
71	603383 12670 235 328177 1.11 59.91 589 36.55 36.55 21527.95 786846.5725
70	616053 18489 235 328177 1.11 59.91 589 100.73484382629 897.40624885171 298566.42662204 182434993.51247
69	634542 18497 235 328177 1.11 59.91 589 12.199205891905 15.839340405856 7980.4978062682 108627.46087516
67	653039 19752 235 328177 1.11 59.91 589 -0.037725844339384 0.42858165364465 69.873733722616 22.640240230246
66	672791 18459 235 328177 1.11 59.91 589 10.959964667217 17.977823977651 7359.3861748 95121.167328798
68	691250 10314 235 328177 1.11 59.91 589 3 3 1767 5301
80	701564 23632 1180 328569 1.300211251558 60.000208938231 588 0.099999290179 0.100012798543 58.799996987573 5.8799994016937
79	725196 23633 848 328234 1.269558451004 59.969555804927 588 0.099999289998 0.100012763309 58.799996654823 5.8799993351394
78	748829 16126 1180 328569 1.300211251558 60.000208938231 588 3 3 1764 5292
77	764955 16125 848 328234 1.269558451004 59.969555804927 588 3 3 1764 5292
76	781080 858 5059 328553 2 60 59 0 0 0 0
75	781938 1609 5059 328553 2 60 59 0.022761642142 0.026257058148 1.545259061769 0.040483584087735
74	783547 858 5059 328553 2 60 59 3 3 177 531
95	784405 19385 236 328178 1.11 59.91 589 -1.4835633710398 1.4833693248235 -4.541113085495 480.66284763198
94	803790 19435 236 328178 1.11 59.91 589 -1.4536758589587 1.4275434706494 -4.8165578302461 342.17501047204
93	823225 12670 236 328178 1.11 59.91 589 36.55 36.55 21527.95 786846.5725
92	835895 18493 236 328178 1.11 59.91 589 85.734847640991 875.96469881414 288997.805495 172459710.33601
91	854388 18505 236 328178 1.11 59.91 589 11.922428290066 15.826067167901 7916.0184483083 106989.81521587
89	872893 19926 236 328178 1.11 59.91 589 -0.012164205678552 0.37345325684183 64.509321351738 19.180263207825
88	892819 18503 236 328178 1.11 59.91 589 10.985056496112 17.437897182627 7211.3315398764 90691.832932779
90	911322 10314 236 328178 1.11 59.91 589 4 4 2356 9424
102	921636 24220 1312 328701 1.306029501731 60.006066292051 588 0.099908299316 0.10010383712 58.79997109122 5.8799953517296
101	945856 24200 854 328240 1.269558501038 59.969555876479 588 0.099999290006 0.100012763407 58.799996676341 5.879999339443
100	970056 16718 1312 328701 1.306029501731 60.006066292051 588 4 4 2352 9408
99	986774 16118 854 328240 1.269558501038 59.969555876479 588 4 4 2352 9408
98	1002892 858 5060 328554 2 60 59 0 0 0 0
97	1003750 1608 5060 328554 2 60 59 0.022762592108 0.026257058 1.5452599902 0.040483626203619
96	1005358 858 5060 328554 2 60 59 4 4 236 944
117	1006216 19955 237 328179 1.11 59.91 589 -1.5014801014847 1.5049213544949 -6.715809826858 501.12026075981
116	1026171 20007 237 328179 1.11 59.91 589 -1.4472993106404 1.4222212013035 -6.9747565583738 340.03664878753
115	1046178 13259 237 328179 1.11 59.91 589 36.55 36.55 21527.95 786846.5725
114	1059437 19078 237 328179 1.11 59.91 589 70.734847640991 855.13274736212 279560.10957969 162993489.79761
113	1078515 19076 237 328179 1.11 59.91 589 11.700806949596 15.816622394236 7857.623318531 105532.86773204
111	1097591 20384 237 328179 1.11 59.91 589 -0.017702951236528 0.33721814719498 58.443295355657 16.22826667546
110	1117975 19059 237 328179 1.11 59.91 589 10.995198399142 16.82762351942 7080.5280127235 86881.754064548
112	1137034 10903 237 328179 1.11 59.91 589 5 5 2945 14725
124	1147937 24220 1112 328492 1.299603151489 59.999600789489 588 0.099999290147 0.10001284672 58.8000099389 5.880001992115
123	1172157 24230 860 328246 1.269558551073 59.969555946002 588 0.099999290012 0.10001276351 58.799996695829 5.8799993433406
122	1196387 16718 1112 328492 1.299603151489 59.999600789489 588 5 5 2940 14700
121	1213105 16712 860 328246 1.269558551073 59.969555946002 588 5 5 2940 14700
120	1229817 917 5061 328555 2 60 59 0 0 0 0
119	1230734 1670 5061 328555 2 60 59 0.022761542073 0.02625705791 1.545258920654 0.040483577377356
118	1232404 917 5061 328555 2 60 59 5 5 295 1475
139	1233321 19949 238 328180 1.11 59.91 589 -1.4833385366793 1.4846827140989 -8.9380906931632 485.66212046478
138	1253270 19996 238 328180 1.11 59.91 589 -1.4512379735308 1.4281947157679 -9.3865902862555 345.03820902552
137	1273266 13259 238 328180 1.11 59.91 589 36.55 36.55 21527.95 786846.5725
136	1286525 19079 238 328180 1.11 59.91 589 55.734845733643 834.97076125834 270234.34080882 153997230.22668
135	1305604 19078 238 328180 1.11 59.91 589 11.525027159223 15.822589850304 7805.918898772 104267.94850088
133	1324682 20341 238 328180 1.11 59.91 589 -0.042125302047937 0.30662100240977 51.774167324529 13.398171752679
132	1345023 19079 238 328180 1.11 59.91 589 10.965125169156 16.15714766311 6968.7346824673 83699.314092243
134	1364102 10903 238 328180 1.11 59.91 589 6 6 3534 21204
146	1375005 24200 1249 328638 1.305616401662 60.005614146672 588 0.0999992902 0.10001283698 58.79999704591 5.8799994133651
145	1399205 24204 866 328252 1.269558601108 59.969556013296 588 0.099999290019 0.100012763611 58.799996713088 5.8799993467924
144	1423409 16705 1249 328638 1.305616401662 60.005614146672 588 6 6 3528 21168
143	1440114 16714 866 328252 1.269558601108 59.969556013296 588 6 6 3528 21168
142	1456828 917 5062 328556 2 60 59 0 0 0 0
141	1457745 1670 5062 328556 2 60 59 0.022762492039 0.026257057818 1.545259853337 0.040483619716282
140	1459415 917 5062 328556 2 60 59 6 6 354 2124
161	1460332 19984 239 328181 1.11 59.91 589 -1.5021746529005 1.5049027578092 -11.642607542353 506.37055560247
160	1480316 20040 239 328181 1.11 59.91 589 -1.4497273580822 1.4256030062324 -11.950458117245 343.64936147176
159	1500356 13259 239 328181 1.11 59.91 589 36.55 36.55 21527.95 786846.5725
158	1513615 19093 239 328181 1.11 59.91 589 40.734846687317 815.45117986167 261008.9484537 145442591.92526
157	1532708 19094 239 328181 1.11 59.91 589 11.374506072283 15.81926088663 7760.6333330485 103175.88123483
155	1551802 20664 239 328181 1.11 59.91 589 -0.0042089978517978 0.28727922023175 45.379431626363 10.900868002202
154	1572466 19093 239 328181 1.11 59.91 589 10.990328222993 15.514447597999 6868.4866438037 80969.733494685
156	1591559 10903 239 328181 1.11 59.91 589 7 7 4123 28861
168	1602462 24222 980 328360 1.292107751212 59.99210520879 588 0.099999290016 0.100012816848 58.799996758478 5.8799993558772
167	1626684 24235 872 328258 1.269558651142 59.969556078449 588 0.099999290018 0.100012763707 58.799996728207 5.8799993498162
166	1650919 16714 980 328360 1.292107751212 59.99210520879 588 7 7 4116 28812
165	1667633 16722 872 328258 1.269558651142 59.969556078449 588 7 7 4116 28812
164	1684355 917 5063 328557 2 60 59 0 0 0 0
163	1685272 1670 5063 328557 2 60 59 0.022762442004 0.026257057807 1.545259788158 0.040483616643381
162	1686942 917 5063 328557 2 60 59 7 7 413 2891
