version 2
run SinusoidalJammingDetail-478-20170803-18:02:07-38214
attr CACCSpacing 5
attr attackAcc -30
attr attackPos 7
attr attackSpeed 150
attr attackStart 32.5
attr attacker 1
attr beaconInterval 0.1
attr configname SinusoidalJammingDetail
attr controller 3
attr datetime 20170803-18:02:07
attr experiment SinusoidalJammingDetail
attr fakeAcc "(1 == 4)"
attr fakePos "(1 == 2)"
attr fakeSpeed "(1 == 3)"
attr inifile omnetpp_478.ini
attr iterationvars "$leaderSpeed=80, $controller=3, $CACCSpacing=5, $sController=\"CONSENSUS\", $attacker=1, $attackStart=32.5, $attackSpeed=150, $attackPos=7, $attackAcc=-30, $0=5, $1=0.8, $nCars=8, $platoonSize=8, $nLanes=1, $beaconInterval=0.1, $priority=2, $packetSize=200, $ploegH=0.5, $leaderHeadway=1.2, $fakeSpeed=(1 == 3), $fakeAcc=(1 == 4), $fakePos=(1 == 2)"
attr iterationvarsf leaderSpeed=80,controller=3,CACCSpacing=5,sController=CONSENSUS,attacker=1,attackStart=32.5,attackSpeed=150,attackPos=7,attackAcc=-30,5,0.8,nCars=8,platoonSize=8,nLanes=1,beaconInterval=0.1,priority=2,packetSize=200,ploegH=0.5,leaderHeadway=1.2,fakeSpeed=(1_==_3),fakeAcc=(1_==_4),fakePos=(1_==_2)-
attr leaderHeadway 1.2
attr leaderSpeed 80
attr measurement "$leaderSpeed=80, $controller=3, $CACCSpacing=5, $sController=\"CONSENSUS\", $attacker=1, $attackStart=32.5, $attackSpeed=150, $attackPos=7, $attackAcc=-30, $0=5, $1=0.8, $nCars=8, $platoonSize=8, $nLanes=1, $beaconInterval=0.1, $priority=2, $packetSize=200, $ploegH=0.5, $leaderHeadway=1.2, $fakeSpeed=(1 == 3), $fakeAcc=(1 == 4), $fakePos=(1 == 2)"
attr nCars 8
attr nLanes 1
attr network scenario
attr packetSize 200
attr platoonSize 8
attr ploegH 0.5
attr priority 2
attr processid 38214
attr repetition 3
attr replication #3
attr resultdir results
attr runnumber 478
attr sController "\"CONSENSUS\""
attr seedset 3
param **.coreDebug false
param **.debug false
param **.headway 0.1s
param **.numberOfCars 8
param **.numberOfCarsPerPlatoon 8
param **.numberOfLanes 1
param **.numericController 3
param **.traffic.nCars 8
param **.traffic.nLanes 1
param **.traffic.platoonInsertDistance 5m
param **.traffic.platoonInsertHeadway 0.8s
param **.traffic.platoonInsertSpeed 80kmph
param **.traffic.platoonInsertTime "1 s"
param **.traffic.platoonLeaderHeadway 1.2s
param **.traffic.platoonSize 8
param **.traffic.platooningVType "\"vtypeauto\""
param **.traffic_type "\"PlatoonsTrafficManager\""
param *.**.nic.mac1609_4.bitrate 6Mbps
param *.**.nic.mac1609_4.txPower 100mW
param *.**.nic.mac1609_4.useServiceChannel false
param *.**.nic.phy80211p.analogueModels "xmldoc(\"config.xml\")"
param *.**.nic.phy80211p.decider "xmldoc(\"config.xml\")"
param *.**.nic.phy80211p.maxTXPower 100mW
param *.**.nic.phy80211p.sensitivity -94dBm
param *.**.nic.phy80211p.thermalNoise -95dBm
param *.**.nic.phy80211p.usePropagationDelay true
param *.**.nic.phy80211p.useThermalNoise true
param *.annotations.draw false
param *.connectionManager.alpha 2.0
param *.connectionManager.carrierFrequency "5.890e9 Hz"
param *.connectionManager.pMax 100mW
param *.connectionManager.sat -94dBm
param *.connectionManager.sendDirect true
param *.manager.autoShutdown true
param *.manager.commandLine "\"sumo --remote-port $port --seed $seed --configuration-file $configFile\""
param *.manager.configFile "\"./sumocfg/freeway.sumo.cfg\""
param *.manager.host "\"localhost\""
param *.manager.margin 25
param *.manager.moduleDisplayString "\"\""
param *.manager.moduleName "\"node\""
param *.manager.moduleType "\"Car\""
param *.manager.updateInterval 0.01s
param *.node[*].appl.attackStart 32.5s
param *.node[*].appl.attackerType 1
param *.node[*].appl.simulationDuration "60 s"
param *.node[*].appl_type "\"SimplePlatooningApp\""
param *.node[*].helper.nCars 8
param *.node[*].helper.nLanes 1
param *.node[*].helper.platoonSize 8
param *.node[*].helper_type "\"PositionHelper\""
param *.node[*].mobility.x 0
param *.node[*].mobility.y 0
param *.node[*].mobility.z 1.895
param *.node[*].prot.attackStart 32.5s
param *.node[*].prot.attackerType 1
param *.node[*].prot.attackingNode 3
param *.node[*].prot.beaconingInterval 0.1s
param *.node[*].prot.fakeAcc "(1 == 4)"
param *.node[*].prot.fakePos "(1 == 2)"
param *.node[*].prot.fakeSpeed "(1 == 3)"
param *.node[*].prot.maliciousAcc "-30 mpss"
param *.node[*].prot.maliciousSpeed 150kmph
param *.node[*].prot.packetSize 200
param *.node[*].prot.priority 2
param *.node[*].prot.shiftX "7 m"
param *.node[*].prot.useControllerAcceleration true
param *.node[*].protocol_type "\"SimplePlatooningBeaconing\""
param *.node[*].scenario.accHeadway 0.1s
param *.node[*].scenario.caccC1 0.5
param *.node[*].scenario.caccOmegaN "0.2 Hz"
param *.node[*].scenario.caccSpacing 5m
param *.node[*].scenario.caccXi 1
param *.node[*].scenario.controller "\"CONSENSUS\""
param *.node[*].scenario.engineTau "0.5 s"
param *.node[*].scenario.leaderHeadway 1.2s
param *.node[*].scenario.leaderOscillationFrequency "0.2 Hz"
param *.node[*].scenario.leaderSpeed 80kmph
param *.node[*].scenario.oscillationAmplitude "10 kmph"
param *.node[*].scenario.ploegH 0.5s
param *.node[*].scenario.ploegKd 0.7
param *.node[*].scenario.ploegKp 0.2
param *.node[*].scenario.startOscillating "5 s"
param *.node[*].scenario.useRealisticEngine false
param *.node[*].scenario_type "\"SinusoidalScenario\""
param *.node[*].unicast.packetLossRate 0
param *.obstacles.debug false
param *.playgroundSizeX 65000m
param *.playgroundSizeY 25000m
param *.playgroundSizeZ 50m
param *.world.use2D false
param *.world.useTorus false

vector 0  scenario.node[0].appl  distance  ETV
vector 1  scenario.node[0].appl  relativeSpeed  ETV
vector 2  scenario.node[0].appl  nodeId  ETV
vector 6  scenario.node[0].appl  acceleration  ETV
vector 7  scenario.node[0].appl  controllerAcceleration  ETV
vector 3  scenario.node[0].appl  speed  ETV
vector 4  scenario.node[0].appl  posx  ETV
vector 5  scenario.node[0].appl  posy  ETV
vector 22  scenario.node[1].appl  distance  ETV
vector 23  scenario.node[1].appl  relativeSpeed  ETV
vector 24  scenario.node[1].appl  nodeId  ETV
vector 28  scenario.node[1].appl  acceleration  ETV
vector 29  scenario.node[1].appl  controllerAcceleration  ETV
vector 25  scenario.node[1].appl  speed  ETV
vector 26  scenario.node[1].appl  posx  ETV
vector 27  scenario.node[1].appl  posy  ETV
vector 44  scenario.node[2].appl  distance  ETV
vector 45  scenario.node[2].appl  relativeSpeed  ETV
vector 46  scenario.node[2].appl  nodeId  ETV
vector 50  scenario.node[2].appl  acceleration  ETV
vector 51  scenario.node[2].appl  controllerAcceleration  ETV
vector 47  scenario.node[2].appl  speed  ETV
vector 48  scenario.node[2].appl  posx  ETV
vector 49  scenario.node[2].appl  posy  ETV
vector 66  scenario.node[3].appl  distance  ETV
vector 67  scenario.node[3].appl  relativeSpeed  ETV
vector 68  scenario.node[3].appl  nodeId  ETV
vector 72  scenario.node[3].appl  acceleration  ETV
vector 73  scenario.node[3].appl  controllerAcceleration  ETV
vector 69  scenario.node[3].appl  speed  ETV
vector 70  scenario.node[3].appl  posx  ETV
vector 71  scenario.node[3].appl  posy  ETV
vector 88  scenario.node[4].appl  distance  ETV
vector 89  scenario.node[4].appl  relativeSpeed  ETV
vector 90  scenario.node[4].appl  nodeId  ETV
vector 94  scenario.node[4].appl  acceleration  ETV
vector 95  scenario.node[4].appl  controllerAcceleration  ETV
vector 91  scenario.node[4].appl  speed  ETV
vector 92  scenario.node[4].appl  posx  ETV
vector 93  scenario.node[4].appl  posy  ETV
vector 110  scenario.node[5].appl  distance  ETV
vector 111  scenario.node[5].appl  relativeSpeed  ETV
vector 112  scenario.node[5].appl  nodeId  ETV
vector 116  scenario.node[5].appl  acceleration  ETV
vector 117  scenario.node[5].appl  controllerAcceleration  ETV
vector 113  scenario.node[5].appl  speed  ETV
vector 114  scenario.node[5].appl  posx  ETV
vector 115  scenario.node[5].appl  posy  ETV
vector 132  scenario.node[6].appl  distance  ETV
vector 133  scenario.node[6].appl  relativeSpeed  ETV
vector 134  scenario.node[6].appl  nodeId  ETV
vector 138  scenario.node[6].appl  acceleration  ETV
vector 139  scenario.node[6].appl  controllerAcceleration  ETV
vector 135  scenario.node[6].appl  speed  ETV
vector 136  scenario.node[6].appl  posx  ETV
vector 137  scenario.node[6].appl  posy  ETV
vector 154  scenario.node[7].appl  distance  ETV
vector 155  scenario.node[7].appl  relativeSpeed  ETV
vector 156  scenario.node[7].appl  nodeId  ETV
vector 160  scenario.node[7].appl  acceleration  ETV
vector 161  scenario.node[7].appl  controllerAcceleration  ETV
vector 157  scenario.node[7].appl  speed  ETV
vector 158  scenario.node[7].appl  posx  ETV
vector 159  scenario.node[7].appl  posy  ETV
vector 35  scenario.node[1].prot  leaderDelay  ETV
vector 33  scenario.node[1].prot  leaderDelayId  ETV
vector 36  scenario.node[1].prot  frontDelay  ETV
vector 34  scenario.node[1].prot  frontDelayId  ETV
vector 57  scenario.node[2].prot  leaderDelay  ETV
vector 55  scenario.node[2].prot  leaderDelayId  ETV
vector 79  scenario.node[3].prot  leaderDelay  ETV
vector 77  scenario.node[3].prot  leaderDelayId  ETV
vector 101  scenario.node[4].prot  leaderDelay  ETV
vector 99  scenario.node[4].prot  leaderDelayId  ETV
vector 123  scenario.node[5].prot  leaderDelay  ETV
vector 121  scenario.node[5].prot  leaderDelayId  ETV
vector 145  scenario.node[6].prot  leaderDelay  ETV
vector 143  scenario.node[6].prot  leaderDelayId  ETV
vector 167  scenario.node[7].prot  leaderDelay  ETV
vector 165  scenario.node[7].prot  leaderDelayId  ETV
vector 168  scenario.node[7].prot  frontDelay  ETV
vector 166  scenario.node[7].prot  frontDelayId  ETV
vector 58  scenario.node[2].prot  frontDelay  ETV
vector 56  scenario.node[2].prot  frontDelayId  ETV
vector 124  scenario.node[5].prot  frontDelay  ETV
vector 122  scenario.node[5].prot  frontDelayId  ETV
vector 80  scenario.node[3].prot  frontDelay  ETV
vector 78  scenario.node[3].prot  frontDelayId  ETV
vector 146  scenario.node[6].prot  frontDelay  ETV
vector 144  scenario.node[6].prot  frontDelayId  ETV
vector 102  scenario.node[4].prot  frontDelay  ETV
vector 100  scenario.node[4].prot  frontDelayId  ETV
vector 8  scenario.node[0].prot  nodeId  ETV
vector 9  scenario.node[0].prot  busyTime  ETV
vector 10  scenario.node[0].prot  collisions  ETV
vector 30  scenario.node[1].prot  nodeId  ETV
vector 31  scenario.node[1].prot  busyTime  ETV
vector 32  scenario.node[1].prot  collisions  ETV
vector 52  scenario.node[2].prot  nodeId  ETV
vector 53  scenario.node[2].prot  busyTime  ETV
vector 54  scenario.node[2].prot  collisions  ETV
vector 74  scenario.node[3].prot  nodeId  ETV
vector 75  scenario.node[3].prot  busyTime  ETV
vector 76  scenario.node[3].prot  collisions  ETV
vector 96  scenario.node[4].prot  nodeId  ETV
vector 97  scenario.node[4].prot  busyTime  ETV
vector 98  scenario.node[4].prot  collisions  ETV
vector 118  scenario.node[5].prot  nodeId  ETV
vector 119  scenario.node[5].prot  busyTime  ETV
vector 120  scenario.node[5].prot  collisions  ETV
vector 140  scenario.node[6].prot  nodeId  ETV
vector 141  scenario.node[6].prot  busyTime  ETV
vector 142  scenario.node[6].prot  collisions  ETV
vector 162  scenario.node[7].prot  nodeId  ETV
vector 163  scenario.node[7].prot  busyTime  ETV
vector 164  scenario.node[7].prot  collisions  ETV
7	232	1.11	8.430731206488e-07
7	788	1.21	8.247038785214e-07
7	1344	1.31	7.948429328053e-07
7	1900	1.41	7.5609037608615e-07
7	2456	1.51	7.1073863239235e-07
7	3012	1.61	6.6078666094427e-07
7	3568	1.71	6.079568990458e-07
7	4124	1.81	5.5371389606762e-07
7	4680	1.91	4.9928438983216e-07
7	5244	2.01	4.4567811841034e-07
7	5800	2.11	3.9370868165634e-07
7	6356	2.21	3.4401411852514e-07
7	6912	2.31	2.9707706872273e-07
7	7468	2.41	2.5324398578164e-07
7	8024	2.51	2.1274344064182e-07
7	8580	2.61	1.7570315336002e-07
7	9136	2.71	1.4216582755466e-07
7	9692	2.81	1.1210364547765e-07
7	10248	2.91	8.5431519636359e-08
7	10812	3.01	6.2018816748832e-08
7	11368	3.11	4.1699859565369e-08
7	11924	3.21	2.4283316690799e-08
7	12480	3.31	9.5601571103998e-09
7	13036	3.41	-2.6894362292751e-09
7	13592	3.51	-1.2690140493987e-08
7	14148	3.61	-2.0666576006079e-08
7	14704	3.71	-2.6839355626862e-08
7	15260	3.81	-3.1421798496467e-08
7	15816	3.91	-3.4617407607129e-08
7	16380	4.01	-3.6617997523081e-08
7	16936	4.11	-3.7602347902066e-08
7	17492	4.21	-3.7735404134764e-08
7	18048	4.31	-3.7167730226884e-08
7	18604	4.41	-3.6035434192172e-08
7	19160	4.51	-3.446024621212e-08
7	19716	4.61	-3.2549973383311e-08
7	20272	4.71	-3.0399071704323e-08
7	20828	4.81	-2.8089345960325e-08
7	21384	4.91	-2.5690727767369e-08
7	21949	5.01	-2.326218861981e-08
7	22506	5.11	0.34814785015927
7	23063	5.21	0.68726933461214
7	23620	5.31	1.0064705986278
7	24177	5.41	1.2963311417008
7	24734	5.51	1.5
7	25291	5.61	1.5
7	25848	5.71	1.5
7	26405	5.81	1.5
7	26962	5.91	1.5
7	27527	6.01	1.5
7	28084	6.11	1.5
7	28641	6.21	1.5
7	29198	6.31	1.5
7	29755	6.41	1.5
7	30312	6.51	1.49192340766
7	30869	6.61	1.22649932262
7	31426	6.71	0.92305383478006
7	31983	6.81	0.58908101519542
7	32540	6.91	0.23235621239028
7	33105	7.01	-0.13919560128961
7	33662	7.11	-0.5176284684353
7	34219	7.21	-0.89509994168449
7	34776	7.31	-1.2639902903501
7	35333	7.41	-1.5
7	35890	7.51	-1.5
7	36447	7.61	-1.5
7	37004	7.71	-1.5
7	37561	7.81	-1.5
7	38118	7.91	-1.5
7	38683	8.01	-1.5
7	39240	8.11	-1.5
7	39797	8.21	-1.5
7	40354	8.31	-1.5
7	40911	8.41	-1.5
7	41468	8.51	-1.5
7	42025	8.61	-1.5
7	42582	8.71	-1.5
7	43139	8.81	-1.5
7	43696	8.91	-1.5
7	44261	9.01	-1.5
7	44818	9.11	-1.5
7	45375	9.21	-1.5
7	45932	9.31	-1.5
7	46489	9.41	-1.5
7	47046	9.51	-1.1784535907027
7	47603	9.61	-0.73985166445766
7	48160	9.71	-0.29046662083969
7	48717	9.81	0.158682056465
7	49274	9.91	0.59737147669388
7	49839	10.01	1.0162504339893
7	50396	10.11	1.4069035497099
7	50953	10.21	1.5
7	51510	10.31	1.5
7	52067	10.41	1.5
7	52624	10.51	1.5
7	53181	10.61	1.5
7	53738	10.71	1.5
7	54295	10.81	1.5
7	54852	10.91	1.5
7	55417	11.01	1.5
7	55974	11.11	1.5
7	56531	11.21	1.5
7	57088	11.31	1.5
7	57645	11.41	1.5
7	58202	11.51	1.5
7	58759	11.61	1.5
7	59316	11.71	1.5
7	59873	11.81	1.5
7	60430	11.91	1.1420569522637
7	60995	12.01	0.73271074167055
7	61552	12.11	0.3076349169641
7	62109	12.21	-0.12290183406852
7	62666	12.31	-0.54917422870931
7	63223	12.41	-0.96209331721755
7	63780	12.51	-1.3532900275778
7	64337	12.61	-1.5
7	64894	12.71	-1.5
7	65451	12.81	-1.5
7	66008	12.91	-1.5
7	66573	13.01	-1.5
7	67130	13.11	-1.5
7	67687	13.21	-1.5
7	68244	13.31	-1.5
7	68801	13.41	-1.5
7	69358	13.51	-1.5
7	69915	13.61	-1.5
7	70472	13.71	-1.5
7	71029	13.81	-1.5
7	71586	13.91	-1.5
7	72151	14.01	-1.5
7	72708	14.11	-1.5
7	73265	14.21	-1.5
7	73822	14.31	-1.5
7	74379	14.41	-1.3008305793368
7	74936	14.51	-0.88835736023102
7	75493	14.61	-0.45792464376746
7	76050	14.71	-0.020297800498863
7	76607	14.81	0.41435934755698
7	77164	14.91	0.83657487483132
7	77729	15.01	1.2376491838803
7	78286	15.11	1.5
7	78843	15.21	1.5
7	79400	15.31	1.5
7	79957	15.41	1.5
7	80514	15.51	1.5
7	81071	15.61	1.5
7	81628	15.71	1.5
7	82185	15.81	1.5
7	82742	15.91	1.5
7	83307	16.01	1.5
7	83864	16.11	1.5
7	84421	16.21	1.5
7	84978	16.31	1.5
7	85535	16.41	1.5
7	86092	16.51	1.5
7	86649	16.61	1.5
7	87206	16.71	1.5
7	87763	16.81	1.5
7	88320	16.91	1.2451238477314
7	88885	17.01	0.83347870134691
7	89442	17.11	0.40470958876234
7	89999	17.21	-0.03059806222544
7	90556	17.31	-0.46243980387284
7	91113	17.41	-0.88148335305215
7	91670	17.51	-1.2791500631777
7	92227	17.61	-1.5
7	92784	17.71	-1.5
7	93341	17.81	-1.5
7	93898	17.91	-1.5
7	94463	18.01	-1.5
7	95020	18.11	-1.5
7	95577	18.21	-1.5
7	96134	18.31	-1.5
7	96691	18.41	-1.5
7	97248	18.51	-1.5
7	97805	18.61	-1.5
7	98362	18.71	-1.5
7	98919	18.81	-1.5
7	99476	18.91	-1.5
7	100041	19.01	-1.5
7	100598	19.11	-1.5
7	101155	19.21	-1.5
7	101712	19.31	-1.5
7	102269	19.41	-1.2657245815164
7	102826	19.51	-0.85377693481871
7	103383	19.61	-0.4243956003844
7	103940	19.71	0.011767371264867
7	104497	19.81	0.44464851836084
7	105054	19.91	0.86486384400239
7	105619	20.01	1.2637899041101
7	106176	20.11	1.5
7	106733	20.21	1.5
7	107290	20.31	1.5
7	107847	20.41	1.5
7	108404	20.51	1.5
7	108961	20.61	1.5
7	109518	20.71	1.5
7	110075	20.81	1.5
7	110632	20.91	1.5
7	111197	21.01	1.5
7	111754	21.11	1.5
7	112311	21.21	1.5
7	112868	21.31	1.5
7	113425	21.41	1.5
7	113982	21.51	1.5
7	114539	21.61	1.5
7	115096	21.71	1.5
7	115653	21.81	1.5
7	116210	21.91	1.2580915517753
7	116775	22.01	0.84625491634726
7	117332	22.11	0.41709956367407
7	117889	22.21	-0.018747163543662
7	118446	22.31	-0.45124369149508
7	119003	22.41	-0.87102520538678
7	119560	22.51	-1.2694848794604
7	120117	22.61	-1.5
7	120674	22.71	-1.5
7	121231	22.81	-1.5
7	121788	22.91	-1.5
7	122353	23.01	-1.5
7	122910	23.11	-1.5
7	123467	23.21	-1.5
7	124024	23.31	-1.5
7	124581	23.41	-1.5
7	125138	23.51	-1.5
7	125695	23.61	-1.5
7	126252	23.71	-1.5
7	126809	23.81	-1.5
7	127366	23.91	-1.5
7	127931	24.01	-1.5
7	128488	24.11	-1.5
7	129045	24.21	-1.5
7	129602	24.31	-1.5
7	130159	24.41	-1.2609239651119
7	130716	24.51	-0.84904615684549
7	131273	24.61	-0.41980696481121
7	131830	24.71	0.016157099446048
7	132387	24.81	0.44879633966007
7	132944	24.91	0.86873882266865
7	133509	25.01	1.2673715557193
7	134066	25.11	1.5
7	134623	25.21	1.5
7	135180	25.31	1.5
7	135737	25.41	1.5
7	136294	25.51	1.5
7	136851	25.61	1.5
7	137408	25.71	1.5
7	137965	25.81	1.5
7	138522	25.91	1.5
7	139087	26.01	1.5
7	139644	26.11	1.5
7	140201	26.21	1.5
7	140758	26.31	1.5
7	141315	26.41	1.5
7	141872	26.51	1.5
7	142429	26.61	1.5
7	142986	26.71	1.5
7	143543	26.81	1.5
7	144100	26.91	1.2598728518627
7	144665	27.01	0.84801032251372
7	145222	27.11	0.41880224309083
7	145779	27.21	-0.017118277442513
7	146336	27.31	-0.44970455708465
7	146893	27.41	-0.86958730431945
7	147450	27.51	-1.2681558149833
7	148007	27.61	-1.5
7	148564	27.71	-1.5
7	149121	27.81	-1.5
7	149678	27.91	-1.5
7	150243	28.01	-1.5
7	150800	28.11	-1.5
7	151357	28.21	-1.5
7	151914	28.31	-1.5
7	152471	28.41	-1.5
7	153028	28.51	-1.5
7	153585	28.61	-1.5
7	154142	28.71	-1.5
7	154699	28.81	-1.5
7	155256	28.91	-1.5
7	155821	29.01	-1.5
7	156378	29.11	-1.5
7	156935	29.21	-1.5
7	157492	29.31	-1.5
7	158049	29.41	-1.2602629232518
7	158606	29.51	-0.84839472385647
7	159163	29.61	-0.41917509845289
7	159720	29.71	0.016761581286932
7	160277	29.81	0.44936751475819
7	160834	29.91	0.86927243012153
7	161399	30.01	1.2678647739108
7	161956	30.11	1.5
7	162513	30.21	1.5
7	163070	30.31	1.5
7	163627	30.41	1.5
7	164184	30.51	1.5
7	164741	30.61	1.5
7	165298	30.71	1.5
7	165855	30.81	1.5
7	166412	30.91	1.5
7	166977	31.01	1.5
7	167534	31.11	1.5
7	168091	31.21	1.5
7	168648	31.31	1.5
7	169205	31.41	1.5
7	169762	31.51	1.5
7	170319	31.61	1.5
7	170876	31.71	1.5
7	171433	31.81	1.5
7	171990	31.91	1.2601181665206
7	172555	32.01	0.84825207129739
7	173112	32.11	0.41903673064385
7	173669	32.21	-0.016893952363201
7	174226	32.31	-0.44949259223613
7	174783	32.41	-0.8693892809366
7	175340	32.51	-1.2679727801774
7	175897	32.61	-1.5
7	176454	32.71	-1.5
7	177011	32.81	-1.5
7	177568	32.91	-1.5
7	178133	33.01	-1.5
7	178690	33.11	-1.5
7	179247	33.21	-1.5
7	179804	33.31	-1.5
7	180361	33.41	-1.5
7	180918	33.51	-1.5
7	181475	33.61	-1.5
7	182032	33.71	-1.5
7	182589	33.81	-1.5
7	183146	33.91	-1.5
7	183711	34.01	-1.5
7	184268	34.11	-1.5
7	184825	34.21	-1.5
7	185382	34.31	-1.5
7	185939	34.41	-1.2601718862039
7	186496	34.51	-0.84830501011572
7	187053	34.61	-0.41908807937784
7	187610	34.71	0.016844829035751
7	188167	34.81	0.44944617558619
7	188724	34.91	0.86934591722748
7	189289	35.01	1.2679326987084
7	189846	35.11	1.5
7	190403	35.21	1.5
7	190960	35.31	1.5
7	191517	35.41	1.5
7	192074	35.51	1.5
7	192631	35.61	1.5
7	193188	35.71	1.5
7	193745	35.81	1.5
7	194302	35.91	1.5
7	194867	36.01	1.5
7	195424	36.11	1.5
7	195981	36.21	1.5
7	196538	36.31	1.5
7	197095	36.41	1.5
7	197652	36.51	1.5
7	198209	36.61	1.5
7	198766	36.71	1.5
7	199323	36.81	1.5
7	199880	36.91	1.2601519506571
7	200445	37.01	0.84828536435041
7	201002	37.11	0.41906902369789
7	201559	37.21	-0.016863058860206
7	202116	37.31	-0.4494634009539
7	202673	37.41	-0.86936200963903
7	203230	37.51	-1.2679475730701
7	203787	37.61	-1.5
7	204344	37.71	-1.5
7	204901	37.81	-1.5
7	205458	37.91	-1.5
7	206023	38.01	-1.5
7	206580	38.11	-1.5
7	207137	38.21	-1.5
7	207694	38.31	-1.5
7	208251	38.41	-1.5
7	208808	38.51	-1.5
7	209365	38.61	-1.5
7	209922	38.71	-1.5
7	210479	38.81	-1.5
7	211036	38.91	-1.5
7	211601	39.01	-1.5
7	212158	39.11	-1.5
7	212715	39.21	-1.5
7	213272	39.31	-1.5
7	213829	39.41	-1.2601593488036
7	214386	39.51	-0.84829265495815
7	214943	39.61	-0.4190760953231
7	215500	39.71	0.016856293712618
7	216057	39.81	0.4494570085635
7	216614	39.91	0.86935603769236
7	217179	40.01	1.2679420531457
7	217736	40.11	1.5
7	218293	40.21	1.5
7	218850	40.31	1.5
7	219407	40.41	1.5
7	219964	40.51	1.5
7	220521	40.61	1.5
7	221078	40.71	1.5
7	221635	40.81	1.5
7	222192	40.91	1.5
7	222757	41.01	1.5
7	223314	41.11	1.5
7	223871	41.21	1.5
7	224428	41.31	1.5
7	224985	41.41	1.5
7	225542	41.51	1.5
7	226099	41.61	1.5
7	226656	41.71	1.5
7	227213	41.81	1.5
7	227770	41.91	1.2601566033284
7	228335	42.01	0.84828994939089
7	228892	42.11	0.41907347102095
7	229449	42.21	-0.016858804279924
7	230006	42.31	-0.4494593807994
7	230563	42.41	-0.86935825390022
7	231120	42.51	-1.2679441016066
7	231677	42.61	-1.5
7	232234	42.71	-1.5
7	232791	42.81	-1.5
7	233348	42.91	-1.5
7	233913	43.01	-1.5
7	234470	43.11	-1.5
7	235027	43.21	-1.5
7	235584	43.31	-1.5
7	236141	43.41	-1.5
7	236698	43.51	-1.5
7	237255	43.61	-1.5
7	237812	43.71	-1.5
7	238369	43.81	-1.5
7	238926	43.91	-1.5
7	239491	44.01	-1.5
7	240048	44.11	-1.5
7	240605	44.21	-1.5
7	241162	44.31	-1.5
7	241719	44.41	-1.2601576221816
7	242276	44.51	-0.84829095343409
7	242833	44.61	-0.41907444490639
7	243390	44.71	0.016857872601843
7	243947	44.81	0.44945850045652
7	244504	44.91	0.86935743145974
7	245069	45.01	1.2679433414174
7	245626	45.11	1.5
7	246183	45.21	1.5
7	246740	45.31	1.5
7	247297	45.41	1.5
7	247854	45.51	1.5
7	248411	45.61	1.5
7	248968	45.71	1.5
7	249525	45.81	1.5
7	250082	45.91	1.5
7	250647	46.01	1.5
7	251204	46.11	1.5
7	251761	46.21	1.5
7	252318	46.31	1.5
7	252875	46.41	1.5
7	253432	46.51	1.5
7	253989	46.61	1.5
7	254546	46.71	1.5
7	255103	46.81	1.5
7	255660	46.91	1.2601572440827
7	256225	47.01	0.84829058083129
7	256782	47.11	0.41907408349525
7	257339	47.21	-0.016858218349732
7	257896	47.31	-0.44945882715384
7	258453	47.41	-0.86935773666943
7	259010	47.51	-1.2679436235256
7	259567	47.61	-1.5
7	260124	47.71	-1.5
7	260681	47.81	-1.5
7	261238	47.91	-1.5
7	261803	48.01	-1.5
7	262360	48.11	-1.5
7	262917	48.21	-1.5
7	263474	48.31	-1.5
7	264031	48.41	-1.5
7	264588	48.51	-1.5
7	265145	48.61	-1.5
7	265702	48.71	-1.5
7	266259	48.81	-1.5
7	266816	48.91	-1.5
7	267381	49.01	-1.5
7	267938	49.11	-1.5
7	268495	49.21	-1.5
7	269052	49.31	-1.5
7	269609	49.41	-1.2601573843952
7	270166	49.51	-0.84829071910411
7	270723	49.61	-0.41907421761477
7	271280	49.71	0.016858090042899
7	271837	49.81	0.44945870591672
7	272394	49.91	0.86935762340638
7	272959	50.01	1.2679435188356
7	273516	50.11	1.5
7	274073	50.21	1.5
7	274630	50.31	1.5
7	275187	50.41	1.5
7	275744	50.51	1.5
7	276301	50.61	1.5
7	276858	50.71	1.5
7	277415	50.81	1.5
7	277972	50.91	1.5
7	278537	51.01	1.5
7	279094	51.11	1.5
7	279651	51.21	1.5
7	280208	51.31	1.5
7	280765	51.41	1.5
7	281322	51.51	1.5
7	281879	51.61	1.5
7	282436	51.71	1.5
7	282993	51.81	1.5
7	283550	51.91	1.2601573323257
7	284115	52.01	0.84829066779152
7	284672	52.11	0.41907416784349
7	285229	52.21	-0.016858137657085
7	285786	52.31	-0.44945875090737
7	286343	52.41	-0.86935766543788
7	286900	52.51	-1.2679435576857
7	287457	52.61	-1.5
7	288014	52.71	-1.5
7	288571	52.81	-1.5
7	289128	52.91	-1.5
7	289693	53.01	-1.5
7	290250	53.11	-1.5
7	290807	53.21	-1.5
7	291364	53.31	-1.5
7	291921	53.41	-1.5
7	292478	53.51	-1.5
7	293035	53.61	-1.5
7	293592	53.71	-1.5
7	294149	53.81	-1.5
7	294706	53.91	-1.5
7	295271	54.01	-1.5
7	295828	54.11	-1.5
7	296385	54.21	-1.5
7	296942	54.31	-1.5
7	297499	54.41	-1.2601573516497
7	298056	54.51	-0.8482906868347
7	298613	54.61	-0.41907418631469
7	299170	54.71	0.016858119986384
7	299727	54.81	0.44945873421026
7	300284	54.91	0.86935764983889
7	300849	55.01	1.2679435432672
7	301406	55.11	1.5
7	301963	55.21	1.5
7	302520	55.31	1.5
7	303077	55.41	1.5
7	303634	55.51	1.5
7	304191	55.61	1.5
7	304748	55.71	1.5
7	305305	55.81	1.5
7	305862	55.91	1.5
7	306427	56.01	1.5
7	306984	56.11	1.5
7	307541	56.21	1.5
7	308098	56.31	1.5
7	308655	56.41	1.5
7	309212	56.51	1.5
7	309769	56.61	1.5
7	310326	56.71	1.5
7	310883	56.81	1.5
7	311440	56.91	1.2601573444777
7	312005	57.01	0.84829067976691
7	312562	57.11	0.41907417945924
7	313119	57.21	-0.016858126544712
7	313676	57.31	-0.44945874040717
7	314233	57.41	-0.86935765562825
7	314790	57.51	-1.2679435486185
7	315347	57.61	-1.5
7	315904	57.71	-1.5
7	316461	57.81	-1.5
7	317018	57.91	-1.5
7	317583	58.01	-1.5
7	318140	58.11	-1.5
7	318697	58.21	-1.5
7	319254	58.31	-1.5
7	319811	58.41	-1.5
7	320368	58.51	-1.5
7	320925	58.61	-1.5
7	321482	58.71	-1.5
7	322039	58.81	-1.5
7	322596	58.91	-1.5
7	323161	59.01	-1.5
7	323718	59.11	-1.5
7	324275	59.21	-1.5
7	324832	59.31	-1.5
7	325389	59.41	-1.2601573471393
7	325946	59.51	-0.84829068238978
7	326503	59.61	-0.41907418200329
7	327060	59.71	0.016858124110932
7	327617	59.81	0.44945873810752
6	232	1.11	1.2391545567425e-07
6	788	1.21	2.514333630188e-07
6	1344	1.31	3.5153284727585e-07
6	1900	1.41	4.2734420446777e-07
6	2456	1.51	4.8187125401e-07
6	3012	1.61	5.1795971955926e-07
6	3568	1.71	5.3827413637464e-07
6	4124	1.81	5.4528506154838e-07
6	4680	1.91	5.4125663950799e-07
6	5244	2.01	5.2824375984528e-07
6	5800	2.11	5.080941889446e-07
6	6356	2.21	4.8245141215375e-07
6	6912	2.31	4.5276244975412e-07
6	7468	2.41	4.202860282021e-07
6	8024	2.51	3.8610643571246e-07
6	8580	2.61	3.5114133822844e-07
6	9136	2.71	3.1616025353287e-07
6	9692	2.81	2.8179307776099e-07
6	10248	2.91	2.4854536206931e-07
6	10812	3.01	2.1681287876163e-07
6	11368	3.11	1.8689298997288e-07
6	11924	3.21	1.5899530581009e-07
6	12480	3.31	1.3325838210676e-07
6	13036	3.41	1.0975469422192e-07
6	13592	3.51	8.8505203166278e-08
6	14148	3.61	6.948575048682e-08
6	14704	3.71	5.263665059374e-08
6	15260	3.81	3.7870506730542e-08
6	15816	3.91	2.5077895315917e-08
6	16380	4.01	1.4133405557004e-08
6	16936	4.11	4.9016790626411e-09
6	17492	4.21	-2.7593927143243e-09
6	18048	4.31	-8.9940499492513e-09
6	18604	4.41	-1.3947598631603e-08
6	19160	4.51	-1.7761081494427e-08
6	19716	4.61	-2.0570567471623e-08
6	20272	4.71	-2.2507151697937e-08
6	20828	4.81	-2.3691626438449e-08
6	21384	4.91	-2.4239099616352e-08
6	21949	5.01	-2.4253310471067e-08
6	22506	5.11	0.0068264050138822
6	23063	5.21	0.074594790622484
6	23620	5.31	0.19005130280156
6	24177	5.41	0.34050268492081
6	24734	5.51	0.51301635125718
6	25291	5.61	0.69025455388463
6	25848	5.71	0.83572669994751
6	26405	5.81	0.95506452764909
6	26962	5.91	1.0529631117155
6	27527	6.01	1.1332740487145
6	28084	6.11	1.1991569893425
6	28641	6.21	1.2532039476781
6	29198	6.31	1.2975412780619
6	29755	6.41	1.3339133316631
6	30312	6.51	1.3635927194422
6	30869	6.61	1.3702053558546
6	31426	6.71	1.3272611868377
6	31983	6.81	1.2373810863703
6	32540	6.91	1.10404336986
6	33105	7.01	0.93147091462953
6	33662	7.11	0.72451590042988
6	34219	7.21	0.48854317855174
6	34776	7.31	0.22931329168649
6	35333	7.41	-0.044839402561792
6	35890	7.51	-0.30626147784645
6	36447	7.61	-0.52071863285548
6	37004	7.71	-0.69664819536399
6	37561	7.81	-0.84097171286572
6	38118	7.91	-0.95936726507979
6	38683	8.01	-1.0564928550515
6	39240	8.11	-1.1361696676595
6	39797	8.21	-1.2015324054218
6	40354	8.31	-1.2551526162195
6	40911	8.41	-1.299139864987
6	41468	8.51	-1.3352247297291
6	42025	8.61	-1.3648268871716
6	42582	8.71	-1.3891109667025
6	43139	8.81	-1.40903237006
6	43696	8.91	-1.4253748594349
6	44261	9.01	-1.4387813928092
6	44818	9.11	-1.4497794196703
6	45375	9.21	-1.4588016323081
6	45932	9.31	-1.466202989106
6	46489	9.41	-1.4722746795719
6	47046	9.51	-1.4696249147679
6	47603	9.61	-1.3967850640324
6	48160	9.71	-1.2587757642699
6	48717	9.81	-1.066095221946
6	49274	9.91	-0.8292333503487
6	49839	10.01	-0.55852907850635
6	50396	10.11	-0.26404116086489
6	50953	10.21	0.039432698568831
6	51510	10.31	0.30182609741765
6	52067	10.41	0.51708007606237
6	52624	10.51	0.69366331148437
6	53181	10.61	0.83852306844925
6	53738	10.71	0.9573585237959
6	54295	10.81	1.0548449875539
6	54852	10.91	1.1348178423589
6	55417	11.01	1.2004234378345
6	55974	11.11	1.2542428765453
6	56531	11.21	1.2983935615914
6	57088	11.31	1.3346125010074
6	57645	11.41	1.3643246463804
6	58202	11.51	1.3886989543238
6	58759	11.61	1.4086943764056
6	59316	11.71	1.425097586916
6	59873	11.81	1.4385539327701
6	60430	11.91	1.4345627372659
6	60995	12.01	1.3623449188493
6	61552	12.11	1.2299875654136
6	62109	12.21	1.046144839739
6	62666	12.31	0.81967864244703
6	63223	12.41	0.55952045900121
6	63780	12.51	0.27454262944673
6	64337	12.61	-0.022341644921298
6	64894	12.71	-0.28780548061533
6	65451	12.81	-0.50557828690501
6	66008	12.91	-0.68422783830435
6	66573	13.01	-0.83078269406727
6	67130	13.11	-0.95100872083052
6	67687	13.21	-1.0496359374866
6	68244	13.31	-1.1305446069922
6	68801	13.41	-1.1969178964666
6	69358	13.51	-1.2513671116437
6	69915	13.61	-1.2960344327443
6	70472	13.71	-1.3326771936686
6	71029	13.81	-1.3627370202961
6	71586	13.91	-1.387396547964
6	72151	14.01	-1.4076259495617
6	72708	14.11	-1.4242211047701
6	73265	14.21	-1.4378349121323
6	73822	14.31	-1.4490029758559
6	74379	14.41	-1.4542593951862
6	74936	14.51	-1.406745439008
6	75493	14.61	-1.2938574955371
6	76050	14.71	-1.1248409052335
6	76607	14.81	-0.90912582143545
6	77164	14.91	-0.65618298377075
6	77729	15.01	-0.37539052554685
6	78286	15.11	-0.078063005097917
6	78843	15.21	0.20543869667193
6	79400	15.31	0.43800883573084
6	79957	15.41	0.6287973539095
6	80514	15.51	0.78531039043277
6	81071	15.61	0.91370559385275
6	81628	15.71	1.0190343806912
6	82185	15.81	1.1054406719015
6	82742	15.91	1.1763239259945
6	83307	16.01	1.2344728829795
6	83864	16.11	1.2821752809813
6	84421	16.21	1.3213078620826
6	84978	16.31	1.3534102084588
6	85535	16.41	1.37974531373
6	86092	16.51	1.401349272566
6	86649	16.61	1.4190720434684
6	87206	16.71	1.4336108884475
6	87763	16.81	1.445537805208
6	88320	16.91	1.4502949065324
6	88885	17.01	1.3935559567514
6	89442	17.11	1.2733368701429
6	89999	17.21	1.0986742440515
6	90556	17.31	0.87879676591136
6	91113	17.41	0.62298329275663
6	91670	17.51	0.34043137853068
6	92227	17.61	0.043031849076769
6	92784	17.71	-0.23417644595618
6	93341	17.81	-0.46158379949794
6	93898	17.91	-0.64813703535584
6	94463	18.01	-0.80117566522766
6	95020	18.11	-0.92672064505805
6	95577	18.21	-1.0297112558195
6	96134	18.31	-1.114199428261
6	96691	18.41	-1.1835091568834
6	97248	18.51	-1.2403672749233
6	97805	18.61	-1.2870107353912
6	98362	18.71	-1.3252746188865
6	98919	18.81	-1.3566643306593
6	99476	18.91	-1.382414827345
6	100041	19.01	-1.4035392035215
6	100598	19.11	-1.4208685496044
6	101155	19.21	-1.4350846492011
6	101712	19.31	-1.4467468023362
6	102269	19.41	-1.4517201941779
6	102826	19.51	-1.3984004323895
6	103383	19.61	-1.2808993810108
6	103940	19.71	-1.1083308503789
6	104497	19.81	-0.88999806037009
6	105054	19.91	-0.63525086467102
6	105619	20.01	-0.35335363991607
6	106176	20.11	-0.055983891309808
6	106733	20.21	0.22355126013096
6	107290	20.31	0.45286744637067
6	107847	20.41	0.64098658988634
6	108404	20.51	0.79530980944291
6	108961	20.61	0.9219086002382
6	109518	20.71	1.0257637030328
6	110075	20.81	1.1109610600439
6	110632	20.91	1.1808525670215
6	111197	21.01	1.2381879459461
6	111754	21.11	1.2852229265697
6	112311	21.21	1.3238079929597
6	112868	21.31	1.3554611865729
6	113425	21.41	1.3814278301389
6	113982	21.51	1.4027295220426
6	114539	21.61	1.4202043287792
6	115096	21.71	1.4345397567762
6	115653	21.81	1.4462998007623
6	116210	21.91	1.4512038299458
6	116775	22.01	1.3966149622043
6	117332	22.11	1.2781048258539
6	117889	22.21	1.1047586168253
6	118446	22.31	0.88585193073918
6	119003	22.41	0.63070830476057
6	119560	22.51	0.34856734380959
6	120117	22.61	0.051185654370656
6	120674	22.71	-0.22748748564574
6	121231	22.81	-0.45609652228009
6	121788	22.91	-0.64363555681872
6	122353	23.01	-0.79748288496297
6	122910	23.11	-0.92369127904632
6	123467	23.21	-1.0272261205632
6	124024	23.31	-1.1121607517786
6	124581	23.41	-1.1818367320966
6	125138	23.51	-1.2389953040923
6	125695	23.61	-1.2858852414528
6	126252	23.71	-1.3243513218477
6	126809	23.81	-1.3559069055024
6	127366	23.91	-1.3817934749049
6	127931	24.01	-1.4030294781044
6	128488	24.11	-1.4204503972252
6	129045	24.21	-1.434741618608
6	129602	24.31	-1.4464653977726
6	130159	24.41	-1.4513952146881
6	130716	24.51	-1.3972773206763
6	131273	24.61	-1.2791416668563
6	131830	24.71	-1.1060840673021
6	132387	24.81	-0.88739036841652
6	132944	24.91	-0.63239387292597
6	133509	25.01	-0.35034337810913
6	134066	25.11	-0.052966136909305
6	134623	25.21	0.2260268698226
6	135180	25.31	0.45489830857264
6	135737	25.41	0.64265260424108
6	136294	25.51	0.79667652148672
6	136851	25.61	0.92302978013947
6	137408	25.71	1.026683461059
6	137965	25.81	1.1117155819772
6	138522	25.91	1.1814715378073
6	139087	26.01	1.2386957175785
6	139644	26.11	1.2856394761656
6	140201	26.21	1.3241497087126
6	140758	26.31	1.3557415125099
6	141315	26.41	1.381657795045
6	141872	26.51	1.4029181733619
6	142429	26.61	1.4203590885685
6	142986	26.71	1.4346667137069
6	143543	26.81	1.4464039496644
6	144100	26.91	1.4513241957726
6	144665	27.01	1.3970315218256
6	145222	27.11	1.2787568961965
6	145779	27.21	1.1055921925461
6	146336	27.31	0.88681945319387
6	146893	27.41	0.63176835684509
6	147450	27.51	0.34968428947479
6	148007	27.61	0.05230539719534
6	148564	27.71	-0.22656890652399
6	149121	27.81	-0.45534296745871
6	149678	27.91	-0.64301737940262
6	150243	28.01	-0.79697576417068
6	150800	28.11	-0.92327526336611
6	151357	28.21	-1.0268848428069
6	151914	28.31	-1.1118807851517
6	152471	28.41	-1.1816070619506
6	153028	28.51	-1.2388068945789
6	153585	28.61	-1.2857306800289
6	154142	28.71	-1.3242245276459
6	154699	28.81	-1.3558028900945
6	155256	28.91	-1.3817081460427
6	155821	29.01	-1.4029594787171
6	156378	29.11	-1.4203929733469
6	156935	29.21	-1.4346945110272
6	157492	29.31	-1.4464267531491
6	158049	29.41	-1.4513505510322
6	158606	29.51	-1.3971227384761
6	159163	29.61	-1.2788996857307
6	159720	29.71	-1.1057747287555
6	160277	29.81	-0.88703132157555
6	160834	29.91	-0.63200048778391
6	161399	30.01	-0.34992887929981
6	161956	30.11	-0.052550599748002
6	162513	30.21	0.22636775502605
6	163070	30.31	0.45517795316989
6	163627	30.41	0.64288201021121
6	164184	30.51	0.79686471428424
6	164741	30.61	0.92318416378099
6	165298	30.71	1.0268101094166
6	165855	30.81	1.1118194777413
6	166412	30.91	1.1815567685208
6	166977	31.01	1.2387656364488
6	167534	31.11	1.2856968339918
6	168091	31.21	1.324196762107
6	168648	31.31	1.3557801126822
6	169205	31.41	1.3816894606308
6	169762	31.51	1.4029441501705
6	170319	31.61	1.4203803985996
6	170876	31.71	1.4346841953547
6	171433	31.81	1.4464182907037
6	171990	31.91	1.451340770512
6	172555	32.01	1.397088887688
6	173112	32.11	1.2788466960817
6	173669	32.21	1.105706988989
6	174226	32.31	0.88695269654693
6	174783	32.41	0.6319143432556
6	175340	32.51	0.34983811123936
6	175897	32.61	0.052459604302157
6	176454	32.71	-0.22644240298604
6	177011	32.81	-0.45523919049693
6	177568	32.91	-0.64293224614822
6	178133	33.01	-0.7969059252499
6	178690	33.11	-0.92321797112582
6	179247	33.21	-1.0268378432144
6	179804	33.31	-1.1118422291158
6	180361	33.41	-1.181575432572
6	180918	33.51	-1.2387809474717
6	181475	33.61	-1.2857093943634
6	182032	33.71	-1.3242070659867
6	182589	33.81	-1.3557885654517
6	183146	33.91	-1.3816963948457
6	183711	34.01	-1.4029498386424
6	184268	34.11	-1.4203850651278
6	184825	34.21	-1.434688023533
6	185382	34.31	-1.4464214311442
6	185939	34.41	-1.4513444000944
6	186496	34.51	-1.3971014498232
6	187053	34.61	-1.2788663607083
6	187610	34.71	-1.1057321274315
6	188167	34.81	-0.88698187454526
6	188724	34.91	-0.63194631176486
6	189289	35.01	-0.34987179555586
6	189846	35.11	-0.052493373001994
6	190403	35.21	0.22641470089013
6	190960	35.31	0.45521646512974
6	191517	35.41	0.64291360343276
6	192074	35.51	0.79689063173021
6	192631	35.61	0.9232054251143
6	193188	35.71	1.0268275511155
6	193745	35.81	1.1118337860104
6	194302	35.91	1.1815685062846
6	194867	36.01	1.2387752655037
6	195424	36.11	1.2857047331707
6	195981	36.21	1.324203242185
6	196538	36.31	1.3557854286034
6	197095	36.41	1.3816938215378
6	197652	36.51	1.4029477276342
6	198209	36.61	1.4203833333653
6	198766	36.71	1.4346866028841
6	199323	36.81	1.4464202657173
6	199880	36.91	1.4513430531448
6	200445	37.01	1.3970967879747
6	201002	37.11	1.2788590631025
6	201559	37.21	1.1057227984747
6	202116	37.31	0.8869710464964
6	202673	37.41	0.63193444814829
6	203230	37.51	0.34985929519813
6	203787	37.61	0.052480841329228
6	204344	37.71	-0.22642498122742
6	204901	37.81	-0.45522489858705
6	205458	37.91	-0.64292052180406
6	206023	38.01	-0.79689630720416
6	206580	38.11	-0.92321008097898
6	207137	38.21	-1.0268313705456
6	207694	38.31	-1.1118369192733
6	208251	38.41	-1.1815710766513
6	208808	38.51	-1.2387773740993
6	209365	38.61	-1.2857064629529
6	209922	38.71	-1.3242046612092
6	210479	38.81	-1.3557865926966
6	211036	38.91	-1.3816947764997
6	211601	39.01	-1.4029485110349
6	212158	39.11	-1.420383976027
6	212715	39.21	-1.4346871300905
6	213272	39.31	-1.4464206982101
6	213829	39.41	-1.4513435530016
6	214386	39.51	-1.3970985180013
6	214943	39.61	-1.2788617712673
6	215500	39.71	-1.1057262604808
6	216057	39.81	-0.88697506482056
6	216614	39.91	-0.63193885077553
6	217179	40.01	-0.34986393412169
6	217736	40.11	-0.052485491873711
6	218293	40.21	0.22642116616005
6	218850	40.31	0.45522176890245
6	219407	40.41	0.64291795437263
6	219964	40.51	0.79689420101552
6	220521	40.61	0.92320835317068
6	221078	40.71	1.0268299531418
6	221635	40.81	1.1118357565078
6	222192	40.91	1.1815701227786
6	222757	41.01	1.2387765915918
6	223314	41.11	1.2857058210248
6	223871	41.21	1.3242041346043
6	224428	41.31	1.3557861606976
6	224985	41.41	1.3816944221094
6	225542	41.51	1.4029482203117
6	226099	41.61	1.420383737533
6	226656	41.71	1.4346869344426
6	227213	41.81	1.4464205377106
6	227770	41.91	1.4513433675031
6	228335	42.01	1.3970978759829
6	228892	42.11	1.2788607662586
6	229449	42.21	1.1057249757194
6	230006	42.31	0.88697357360701
6	230563	42.41	0.6319372169461
6	231120	42.51	0.3498622126024
6	231677	42.61	0.052483766041789
6	232234	42.71	-0.22642258194381
6	232791	42.81	-0.45522293033819
6	233348	42.91	-0.64291890715467
6	233913	43.01	-0.79689498262923
6	234470	43.11	-0.92320899436622
6	235027	43.21	-1.0268304791456
6	235584	43.31	-1.111836188014
6	236141	43.41	-1.1815704767642
6	236698	43.51	-1.2387768819831
6	237255	43.61	-1.2857060592466
6	237812	43.71	-1.3242043300295
6	238369	43.81	-1.3557863210146
6	238926	43.91	-1.3816945536259
6	239491	44.01	-1.4029483282012
6	240048	44.11	-1.4203838260396
6	240605	44.21	-1.4346870070494
6	241162	44.31	-1.4464205972729
6	241719	44.41	-1.4513434363423
6	242276	44.51	-1.3970981142382
6	242833	44.61	-1.2788611392207
6	243390	44.71	-1.1057254524978
6	243947	44.81	-0.88697412700043
6	244504	44.91	-0.63193782326394
6	245069	45.01	-0.34986285146203
6	245626	45.11	-0.052484406502273
6	246183	45.21	0.22642205654293
6	246740	45.31	0.45522249932652
6	247297	45.41	0.64291855357439
6	247854	45.51	0.7968946925704
6	248411	45.61	0.92320875641683
6	248968	45.71	1.0268302839439
6	249525	45.81	1.1118360278807
6	250082	45.91	1.1815703453994
6	250647	46.01	1.2387767742183
6	251204	46.11	1.285705970842
6	251761	46.21	1.3242042575069
6	252318	46.31	1.3557862615201
6	252875	46.41	1.3816945048191
6	253432	46.51	1.4029482881629
6	253989	46.61	1.4203837931944
6	254546	46.71	1.4346869801042
6	255103	46.81	1.4464205751686
6	255660	46.91	1.4513434107954
6	256225	47.01	1.3970980258208
6	256782	47.11	1.2788610008133
6	257339	47.21	1.1057252755645
6	257896	47.31	0.88697392163581
6	258453	47.41	0.63193759825886
6	259010	47.51	0.34986261438021
6	259567	47.61	0.052484168826084
6	260124	47.71	-0.22642225152048
6	260681	47.81	-0.45522265927609
6	261238	47.91	-0.64291868478925
6	261803	48.01	-0.79689480021266
6	262360	48.11	-0.92320884472166
6	262917	48.21	-1.0268303563844
6	263474	48.31	-1.1118360873073
6	264031	48.41	-1.1815703941497
6	264588	48.51	-1.2387768142112
6	265145	48.61	-1.2857060036499
6	265702	48.71	-1.3242042844208
6	266259	48.81	-1.3557862835995
6	266816	48.91	-1.3816945229319
6	267381	49.01	-1.402948303021
6	267938	49.11	-1.4203838053835
6	268495	49.21	-1.434686990104
6	269052	49.31	-1.4464205833722
6	269609	49.41	-1.4513434202772
6	270166	49.51	-1.3970980586329
6	270723	49.61	-1.278861052177
6	271280	49.71	-1.105725341225
6	271837	49.81	-0.88697399784721
6	272394	49.91	-0.63193768175829
6	272959	50.01	-0.34986270236175
6	273516	50.11	-0.05248425702824
6	274073	50.21	0.22642217916413
6	274630	50.31	0.45522259991877
6	275187	50.41	0.6429186360954
6	275744	50.51	0.79689476026594
6	276301	50.61	0.92320881195107
6	276858	50.71	1.0268303295014
6	277415	50.81	1.1118360652539
6	277972	50.91	1.1815703760583
6	278537	51.01	1.2387767993697
6	279094	51.11	1.2857059914751
6	279651	51.21	1.3242042744334
6	280208	51.31	1.3557862754059
6	280765	51.41	1.3816945162102
6	281322	51.51	1.4029482975072
6	281879	51.61	1.4203838008605
6	282436	51.71	1.4346869863935
6	282993	51.81	1.4464205803286
6	283550	51.91	1.451343416759
6	284115	52.01	1.3970980464567
6	284672	52.11	1.2788610331157
6	285229	52.21	1.1057253168584
6	285786	52.31	0.88697396956547
6	286343	52.41	0.63193765077223
6	286900	52.51	0.34986266971266
6	287457	52.61	0.052484224297444
6	288014	52.71	-0.22642220601448
6	288571	52.81	-0.45522262194524
6	289128	52.91	-0.64291865416521
6	289693	53.01	-0.79689477508964
6	290250	53.11	-0.9232088241113
6	290807	53.21	-1.0268303394767
6	291364	53.31	-1.1118360734379
6	291921	53.41	-1.1815703827718
6	292478	53.51	-1.2387768048768
6	293035	53.61	-1.2857059959927
6	293592	53.71	-1.3242042781389
6	294149	53.81	-1.3557862784456
6	294706	53.91	-1.3816945187042
6	295271	54.01	-1.4029482995529
6	295828	54.11	-1.4203838025381
6	296385	54.21	-1.4346869877695
6	296942	54.31	-1.4464205814569
6	297499	54.41	-1.4513434180639
6	298056	54.51	-1.397098050975
6	298613	54.61	-1.2788610401895
6	299170	54.71	-1.1057253259011
6	299727	54.81	-0.88697398006055
6	300284	54.91	-0.63193766227059
6	300849	55.01	-0.34986268182813
6	301406	55.11	-0.052484236443462
6	301963	55.21	0.22642219605018
6	302520	55.31	0.4552226137708
6	303077	55.41	0.6429186474584
6	303634	55.51	0.79689476958791
6	304191	55.61	0.92320881959758
6	304748	55.71	1.0268303357741
6	305305	55.81	1.1118360704
6	305862	55.91	1.18157038028
6	306427	56.01	1.2387768028326
6	306984	56.11	1.2857059943155
6	307541	56.21	1.3242042767637
6	308098	56.31	1.355786277318
6	308655	56.41	1.3816945177794
6	309212	56.51	1.4029482987947
6	309769	56.61	1.420383801916
6	310326	56.71	1.4346869872593
6	310883	56.81	1.4464205810384
6	311440	56.91	1.4513434175793
6	312005	57.01	1.3970980492978
6	312562	57.11	1.2788610375637
6	313119	57.21	1.1057253225449
6	313676	57.31	0.886973976165
6	314233	57.41	0.63193765800307
6	314790	57.51	0.34986267733181
6	315347	57.61	0.052484231935068
6	315904	57.71	-0.22642219974927
6	316461	57.81	-0.45522261680553
6	317018	57.91	-0.64291864994814
6	317583	58.01	-0.79689477163036
6	318140	58.11	-0.92320882127339
6	318697	58.21	-1.026830337149
6	319254	58.31	-1.1118360715276
6	319811	58.41	-1.1815703812051
6	320368	58.51	-1.2387768035918
6	320925	58.61	-1.2857059949379
6	321482	58.71	-1.3242042772738
6	322039	58.81	-1.3557862777361
6	322596	58.91	-1.3816945181215
6	323161	59.01	-1.4029482990757
6	323718	59.11	-1.4203838021466
6	324275	59.21	-1.4346869874483
6	324832	59.31	-1.4464205811937
6	325389	59.41	-1.4513434177591
6	325946	59.51	-1.3970980499199
6	326503	59.61	-1.2788610385382
6	327060	59.71	-1.1057253237905
6	327617	59.81	-0.88697397761095
5	232	1.11	36.55
5	788	1.21	36.55
5	1344	1.31	36.55
5	1900	1.41	36.55
5	2456	1.51	36.55
5	3012	1.61	36.55
5	3568	1.71	36.55
5	4124	1.81	36.55
5	4680	1.91	36.55
5	5244	2.01	36.55
5	5800	2.11	36.55
5	6356	2.21	36.55
5	6912	2.31	36.55
5	7468	2.41	36.55
5	8024	2.51	36.55
5	8580	2.61	36.55
5	9136	2.71	36.55
5	9692	2.81	36.55
5	10248	2.91	36.55
5	10812	3.01	36.55
5	11368	3.11	36.55
5	11924	3.21	36.55
5	12480	3.31	36.55
5	13036	3.41	36.55
5	13592	3.51	36.55
5	14148	3.61	36.55
5	14704	3.71	36.55
5	15260	3.81	36.55
5	15816	3.91	36.55
5	16380	4.01	36.55
5	16936	4.11	36.55
5	17492	4.21	36.55
5	18048	4.31	36.55
5	18604	4.41	36.55
5	19160	4.51	36.55
5	19716	4.61	36.55
5	20272	4.71	36.55
5	20828	4.81	36.55
5	21384	4.91	36.55
5	21949	5.01	36.55
5	22506	5.11	36.55
5	23063	5.21	36.55
5	23620	5.31	36.55
5	24177	5.41	36.55
5	24734	5.51	36.55
5	25291	5.61	36.55
5	25848	5.71	36.55
5	26405	5.81	36.55
5	26962	5.91	36.55
5	27527	6.01	36.55
5	28084	6.11	36.55
5	28641	6.21	36.55
5	29198	6.31	36.55
5	29755	6.41	36.55
5	30312	6.51	36.55
5	30869	6.61	36.55
5	31426	6.71	36.55
5	31983	6.81	36.55
5	32540	6.91	36.55
5	33105	7.01	36.55
5	33662	7.11	36.55
5	34219	7.21	36.55
5	34776	7.31	36.55
5	35333	7.41	36.55
5	35890	7.51	36.55
5	36447	7.61	36.55
5	37004	7.71	36.55
5	37561	7.81	36.55
5	38118	7.91	36.55
5	38683	8.01	36.55
5	39240	8.11	36.55
5	39797	8.21	36.55
5	40354	8.31	36.55
5	40911	8.41	36.55
5	41468	8.51	36.55
5	42025	8.61	36.55
5	42582	8.71	36.55
5	43139	8.81	36.55
5	43696	8.91	36.55
5	44261	9.01	36.55
5	44818	9.11	36.55
5	45375	9.21	36.55
5	45932	9.31	36.55
5	46489	9.41	36.55
5	47046	9.51	36.55
5	47603	9.61	36.55
5	48160	9.71	36.55
5	48717	9.81	36.55
5	49274	9.91	36.55
5	49839	10.01	36.55
5	50396	10.11	36.55
5	50953	10.21	36.55
5	51510	10.31	36.55
5	52067	10.41	36.55
5	52624	10.51	36.55
5	53181	10.61	36.55
5	53738	10.71	36.55
5	54295	10.81	36.55
5	54852	10.91	36.55
5	55417	11.01	36.55
5	55974	11.11	36.55
5	56531	11.21	36.55
5	57088	11.31	36.55
5	57645	11.41	36.55
5	58202	11.51	36.55
5	58759	11.61	36.55
5	59316	11.71	36.55
5	59873	11.81	36.55
5	60430	11.91	36.55
5	60995	12.01	36.55
5	61552	12.11	36.55
5	62109	12.21	36.55
5	62666	12.31	36.55
5	63223	12.41	36.55
5	63780	12.51	36.55
5	64337	12.61	36.55
5	64894	12.71	36.55
5	65451	12.81	36.55
5	66008	12.91	36.55
5	66573	13.01	36.55
5	67130	13.11	36.55
5	67687	13.21	36.55
5	68244	13.31	36.55
5	68801	13.41	36.55
5	69358	13.51	36.55
5	69915	13.61	36.55
5	70472	13.71	36.55
5	71029	13.81	36.55
5	71586	13.91	36.55
5	72151	14.01	36.55
5	72708	14.11	36.55
5	73265	14.21	36.55
5	73822	14.31	36.55
5	74379	14.41	36.55
5	74936	14.51	36.55
5	75493	14.61	36.55
5	76050	14.71	36.55
5	76607	14.81	36.55
5	77164	14.91	36.55
5	77729	15.01	36.55
5	78286	15.11	36.55
5	78843	15.21	36.55
5	79400	15.31	36.55
5	79957	15.41	36.55
5	80514	15.51	36.55
5	81071	15.61	36.55
5	81628	15.71	36.55
5	82185	15.81	36.55
5	82742	15.91	36.55
5	83307	16.01	36.55
5	83864	16.11	36.55
5	84421	16.21	36.55
5	84978	16.31	36.55
5	85535	16.41	36.55
5	86092	16.51	36.55
5	86649	16.61	36.55
5	87206	16.71	36.55
5	87763	16.81	36.55
5	88320	16.91	36.55
5	88885	17.01	36.55
5	89442	17.11	36.55
5	89999	17.21	36.55
5	90556	17.31	36.55
5	91113	17.41	36.55
5	91670	17.51	36.55
5	92227	17.61	36.55
5	92784	17.71	36.55
5	93341	17.81	36.55
5	93898	17.91	36.55
5	94463	18.01	36.55
5	95020	18.11	36.55
5	95577	18.21	36.55
5	96134	18.31	36.55
5	96691	18.41	36.55
5	97248	18.51	36.55
5	97805	18.61	36.55
5	98362	18.71	36.55
5	98919	18.81	36.55
5	99476	18.91	36.55
5	100041	19.01	36.55
5	100598	19.11	36.55
5	101155	19.21	36.55
5	101712	19.31	36.55
5	102269	19.41	36.55
5	102826	19.51	36.55
5	103383	19.61	36.55
5	103940	19.71	36.55
5	104497	19.81	36.55
5	105054	19.91	36.55
5	105619	20.01	36.55
5	106176	20.11	36.55
5	106733	20.21	36.55
5	107290	20.31	36.55
5	107847	20.41	36.55
5	108404	20.51	36.55
5	108961	20.61	36.55
5	109518	20.71	36.55
5	110075	20.81	36.55
5	110632	20.91	36.55
5	111197	21.01	36.55
5	111754	21.11	36.55
5	112311	21.21	36.55
5	112868	21.31	36.55
5	113425	21.41	36.55
5	113982	21.51	36.55
5	114539	21.61	36.55
5	115096	21.71	36.55
5	115653	21.81	36.55
5	116210	21.91	36.55
5	116775	22.01	36.55
5	117332	22.11	36.55
5	117889	22.21	36.55
5	118446	22.31	36.55
5	119003	22.41	36.55
5	119560	22.51	36.55
5	120117	22.61	36.55
5	120674	22.71	36.55
5	121231	22.81	36.55
5	121788	22.91	36.55
5	122353	23.01	36.55
5	122910	23.11	36.55
5	123467	23.21	36.55
5	124024	23.31	36.55
5	124581	23.41	36.55
5	125138	23.51	36.55
5	125695	23.61	36.55
5	126252	23.71	36.55
5	126809	23.81	36.55
5	127366	23.91	36.55
5	127931	24.01	36.55
5	128488	24.11	36.55
5	129045	24.21	36.55
5	129602	24.31	36.55
5	130159	24.41	36.55
5	130716	24.51	36.55
5	131273	24.61	36.55
5	131830	24.71	36.55
5	132387	24.81	36.55
5	132944	24.91	36.55
5	133509	25.01	36.55
5	134066	25.11	36.55
5	134623	25.21	36.55
5	135180	25.31	36.55
5	135737	25.41	36.55
5	136294	25.51	36.55
5	136851	25.61	36.55
5	137408	25.71	36.55
5	137965	25.81	36.55
5	138522	25.91	36.55
5	139087	26.01	36.55
5	139644	26.11	36.55
5	140201	26.21	36.55
5	140758	26.31	36.55
5	141315	26.41	36.55
5	141872	26.51	36.55
5	142429	26.61	36.55
5	142986	26.71	36.55
5	143543	26.81	36.55
5	144100	26.91	36.55
5	144665	27.01	36.55
5	145222	27.11	36.55
5	145779	27.21	36.55
5	146336	27.31	36.55
5	146893	27.41	36.55
5	147450	27.51	36.55
5	148007	27.61	36.55
5	148564	27.71	36.55
5	149121	27.81	36.55
5	149678	27.91	36.55
5	150243	28.01	36.55
5	150800	28.11	36.55
5	151357	28.21	36.55
5	151914	28.31	36.55
5	152471	28.41	36.55
5	153028	28.51	36.55
5	153585	28.61	36.55
5	154142	28.71	36.55
5	154699	28.81	36.55
5	155256	28.91	36.55
5	155821	29.01	36.55
5	156378	29.11	36.55
5	156935	29.21	36.55
5	157492	29.31	36.55
5	158049	29.41	36.55
5	158606	29.51	36.55
5	159163	29.61	36.55
5	159720	29.71	36.55
5	160277	29.81	36.55
5	160834	29.91	36.55
5	161399	30.01	36.55
5	161956	30.11	36.55
5	162513	30.21	36.55
5	163070	30.31	36.55
5	163627	30.41	36.55
5	164184	30.51	36.55
5	164741	30.61	36.55
5	165298	30.71	36.55
5	165855	30.81	36.55
5	166412	30.91	36.55
5	166977	31.01	36.55
5	167534	31.11	36.55
5	168091	31.21	36.55
5	168648	31.31	36.55
5	169205	31.41	36.55
5	169762	31.51	36.55
5	170319	31.61	36.55
5	170876	31.71	36.55
5	171433	31.81	36.55
5	171990	31.91	36.55
5	172555	32.01	36.55
5	173112	32.11	36.55
5	173669	32.21	36.55
5	174226	32.31	36.55
5	174783	32.41	36.55
5	175340	32.51	36.55
5	175897	32.61	36.55
5	176454	32.71	36.55
5	177011	32.81	36.55
5	177568	32.91	36.55
5	178133	33.01	36.55
5	178690	33.11	36.55
5	179247	33.21	36.55
5	179804	33.31	36.55
5	180361	33.41	36.55
5	180918	33.51	36.55
5	181475	33.61	36.55
5	182032	33.71	36.55
5	182589	33.81	36.55
5	183146	33.91	36.55
5	183711	34.01	36.55
5	184268	34.11	36.55
5	184825	34.21	36.55
5	185382	34.31	36.55
5	185939	34.41	36.55
5	186496	34.51	36.55
5	187053	34.61	36.55
5	187610	34.71	36.55
5	188167	34.81	36.55
5	188724	34.91	36.55
5	189289	35.01	36.55
5	189846	35.11	36.55
5	190403	35.21	36.55
5	190960	35.31	36.55
5	191517	35.41	36.55
5	192074	35.51	36.55
5	192631	35.61	36.55
5	193188	35.71	36.55
5	193745	35.81	36.55
5	194302	35.91	36.55
5	194867	36.01	36.55
5	195424	36.11	36.55
5	195981	36.21	36.55
5	196538	36.31	36.55
5	197095	36.41	36.55
5	197652	36.51	36.55
5	198209	36.61	36.55
5	198766	36.71	36.55
5	199323	36.81	36.55
5	199880	36.91	36.55
5	200445	37.01	36.55
5	201002	37.11	36.55
5	201559	37.21	36.55
5	202116	37.31	36.55
5	202673	37.41	36.55
5	203230	37.51	36.55
5	203787	37.61	36.55
5	204344	37.71	36.55
5	204901	37.81	36.55
5	205458	37.91	36.55
5	206023	38.01	36.55
5	206580	38.11	36.55
5	207137	38.21	36.55
5	207694	38.31	36.55
5	208251	38.41	36.55
5	208808	38.51	36.55
5	209365	38.61	36.55
5	209922	38.71	36.55
5	210479	38.81	36.55
5	211036	38.91	36.55
5	211601	39.01	36.55
5	212158	39.11	36.55
5	212715	39.21	36.55
5	213272	39.31	36.55
5	213829	39.41	36.55
5	214386	39.51	36.55
5	214943	39.61	36.55
5	215500	39.71	36.55
5	216057	39.81	36.55
5	216614	39.91	36.55
5	217179	40.01	36.55
5	217736	40.11	36.55
5	218293	40.21	36.55
5	218850	40.31	36.55
5	219407	40.41	36.55
5	219964	40.51	36.55
5	220521	40.61	36.55
5	221078	40.71	36.55
5	221635	40.81	36.55
5	222192	40.91	36.55
5	222757	41.01	36.55
5	223314	41.11	36.55
5	223871	41.21	36.55
5	224428	41.31	36.55
5	224985	41.41	36.55
5	225542	41.51	36.55
5	226099	41.61	36.55
5	226656	41.71	36.55
5	227213	41.81	36.55
5	227770	41.91	36.55
5	228335	42.01	36.55
5	228892	42.11	36.55
5	229449	42.21	36.55
5	230006	42.31	36.55
5	230563	42.41	36.55
5	231120	42.51	36.55
5	231677	42.61	36.55
5	232234	42.71	36.55
5	232791	42.81	36.55
5	233348	42.91	36.55
5	233913	43.01	36.55
5	234470	43.11	36.55
5	235027	43.21	36.55
5	235584	43.31	36.55
5	236141	43.41	36.55
5	236698	43.51	36.55
5	237255	43.61	36.55
5	237812	43.71	36.55
5	238369	43.81	36.55
5	238926	43.91	36.55
5	239491	44.01	36.55
5	240048	44.11	36.55
5	240605	44.21	36.55
5	241162	44.31	36.55
5	241719	44.41	36.55
5	242276	44.51	36.55
5	242833	44.61	36.55
5	243390	44.71	36.55
5	243947	44.81	36.55
5	244504	44.91	36.55
5	245069	45.01	36.55
5	245626	45.11	36.55
5	246183	45.21	36.55
5	246740	45.31	36.55
5	247297	45.41	36.55
5	247854	45.51	36.55
5	248411	45.61	36.55
5	248968	45.71	36.55
5	249525	45.81	36.55
5	250082	45.91	36.55
5	250647	46.01	36.55
5	251204	46.11	36.55
5	251761	46.21	36.55
5	252318	46.31	36.55
5	252875	46.41	36.55
5	253432	46.51	36.55
5	253989	46.61	36.55
5	254546	46.71	36.55
5	255103	46.81	36.55
5	255660	46.91	36.55
5	256225	47.01	36.55
5	256782	47.11	36.55
5	257339	47.21	36.55
5	257896	47.31	36.55
5	258453	47.41	36.55
5	259010	47.51	36.55
5	259567	47.61	36.55
5	260124	47.71	36.55
5	260681	47.81	36.55
5	261238	47.91	36.55
5	261803	48.01	36.55
5	262360	48.11	36.55
5	262917	48.21	36.55
5	263474	48.31	36.55
5	264031	48.41	36.55
5	264588	48.51	36.55
5	265145	48.61	36.55
5	265702	48.71	36.55
5	266259	48.81	36.55
5	266816	48.91	36.55
5	267381	49.01	36.55
5	267938	49.11	36.55
5	268495	49.21	36.55
5	269052	49.31	36.55
5	269609	49.41	36.55
5	270166	49.51	36.55
5	270723	49.61	36.55
5	271280	49.71	36.55
5	271837	49.81	36.55
5	272394	49.91	36.55
5	272959	50.01	36.55
5	273516	50.11	36.55
5	274073	50.21	36.55
5	274630	50.31	36.55
5	275187	50.41	36.55
5	275744	50.51	36.55
5	276301	50.61	36.55
5	276858	50.71	36.55
5	277415	50.81	36.55
5	277972	50.91	36.55
5	278537	51.01	36.55
5	279094	51.11	36.55
5	279651	51.21	36.55
5	280208	51.31	36.55
5	280765	51.41	36.55
5	281322	51.51	36.55
5	281879	51.61	36.55
5	282436	51.71	36.55
5	282993	51.81	36.55
5	283550	51.91	36.55
5	284115	52.01	36.55
5	284672	52.11	36.55
5	285229	52.21	36.55
5	285786	52.31	36.55
5	286343	52.41	36.55
5	286900	52.51	36.55
5	287457	52.61	36.55
5	288014	52.71	36.55
5	288571	52.81	36.55
5	289128	52.91	36.55
5	289693	53.01	36.55
5	290250	53.11	36.55
5	290807	53.21	36.55
5	291364	53.31	36.55
5	291921	53.41	36.55
5	292478	53.51	36.55
5	293035	53.61	36.55
5	293592	53.71	36.55
5	294149	53.81	36.55
5	294706	53.91	36.55
5	295271	54.01	36.55
5	295828	54.11	36.55
5	296385	54.21	36.55
5	296942	54.31	36.55
5	297499	54.41	36.55
5	298056	54.51	36.55
5	298613	54.61	36.55
5	299170	54.71	36.55
5	299727	54.81	36.55
5	300284	54.91	36.55
5	300849	55.01	36.55
5	301406	55.11	36.55
5	301963	55.21	36.55
5	302520	55.31	36.55
5	303077	55.41	36.55
5	303634	55.51	36.55
5	304191	55.61	36.55
5	304748	55.71	36.55
5	305305	55.81	36.55
5	305862	55.91	36.55
5	306427	56.01	36.55
5	306984	56.11	36.55
5	307541	56.21	36.55
5	308098	56.31	36.55
5	308655	56.41	36.55
5	309212	56.51	36.55
5	309769	56.61	36.55
5	310326	56.71	36.55
5	310883	56.81	36.55
5	311440	56.91	36.55
5	312005	57.01	36.55
5	312562	57.11	36.55
5	313119	57.21	36.55
5	313676	57.31	36.55
5	314233	57.41	36.55
5	314790	57.51	36.55
5	315347	57.61	36.55
5	315904	57.71	36.55
5	316461	57.81	36.55
5	317018	57.91	36.55
5	317583	58.01	36.55
5	318140	58.11	36.55
5	318697	58.21	36.55
5	319254	58.31	36.55
5	319811	58.41	36.55
5	320368	58.51	36.55
5	320925	58.61	36.55
5	321482	58.71	36.55
5	322039	58.81	36.55
5	322596	58.91	36.55
5	323161	59.01	36.55
5	323718	59.11	36.55
5	324275	59.21	36.55
5	324832	59.31	36.55
5	325389	59.41	36.55
5	325946	59.51	36.55
5	326503	59.61	36.55
5	327060	59.71	36.55
5	327617	59.81	36.55
4	232	1.11	229.01262741116
4	788	1.21	231.23484955037
4	1344	1.31	233.45707169229
4	1900	1.41	235.67929383789
4	2456	1.51	237.90151598787
4	3012	1.61	240.12373814274
4	3568	1.71	242.34596030283
4	4124	1.81	244.56818246832
4	4680	1.91	246.79040463926
4	5244	2.01	249.01262681558
4	5800	2.11	251.23484899715
4	6356	2.21	253.45707118374
4	6912	2.31	255.6792933751
4	7468	2.41	257.90151557092
4	8024	2.51	260.12373777088
4	8580	2.61	262.34595997463
4	9136	2.71	264.56818218182
4	9692	2.81	266.7904043921
4	10248	2.91	269.01262660513
4	10812	3.01	271.23484882059
4	11368	3.11	273.45707103815
4	11924	3.21	275.67929325752
4	12480	3.31	277.90151547844
4	13036	3.41	280.12373770064
4	13592	3.51	282.34595992389
4	14148	3.61	284.56818214799
4	14704	3.71	286.79040437276
4	15260	3.81	289.01262659802
4	15816	3.91	291.23484882363
4	16380	4.01	293.45707104947
4	16936	4.11	295.67929327543
4	17492	4.21	297.90151550143
4	18048	4.31	300.12373772739
4	18604	4.41	302.34595995324
4	19160	4.51	304.56818217895
4	19716	4.61	306.79040440448
4	20272	4.71	309.0126266298
4	20828	4.81	311.23484885489
4	21384	4.91	313.45707107974
4	21949	5.01	315.67929330435
4	22506	5.11	317.901516894
4	23063	5.21	320.12396698513
4	23620	5.31	322.3474171694
4	24177	5.41	324.57309207449
4	24734	5.51	326.80254168413
4	25291	5.61	329.03750086075
4	25848	5.71	331.27965508891
4	26405	5.81	333.53040640908
4	26962	5.91	335.79090511455
4	27527	6.01	338.0620948465
4	28084	6.11	340.34474971933
4	28641	6.21	342.6395047765
4	29198	6.31	344.94688097482
4	29755	6.41	347.26730568033
4	30312	6.51	349.60112945035
4	30869	6.61	351.94861003482
4	31426	6.71	354.30970100077
4	31983	6.81	356.68387583167
4	32540	6.91	359.07014575118
4	33105	7.01	361.46709604651
4	33662	7.11	363.87292960315
4	34219	7.21	366.28551649516
4	34776	7.31	368.70244846319
4	35333	7.41	371.12109757028
4	35890	7.51	373.5387508892
4	36447	7.61	375.95291061358
4	37004	7.71	378.36150959812
4	37561	7.81	380.76285206369
4	38118	7.91	383.15554688076
4	38683	8.01	385.53845283858
4	39240	8.11	387.91063374685
4	39797	8.21	390.27132160345
4	40354	8.31	392.61988637917
4	40911	8.41	394.95581123058
4	41468	8.51	397.27867216607
4	42025	8.61	399.58812136486
4	42582	8.71	401.88387349273
4	43139	8.81	404.16569447627
4	43696	8.91	406.43339229373
4	44261	9.01	408.68680942041
4	44818	9.11	410.92581663119
4	45375	9.21	413.15030791645
4	45932	9.31	415.3601963114
4	46489	9.41	417.55541047459
4	47046	9.51	419.73589414403
4	47603	9.61	421.90184262008
4	48160	9.71	424.05411722407
4	48717	9.81	426.1942097184
4	49274	9.91	428.32413721612
4	49839	10.01	430.44633755672
4	50396	10.11	432.56356645705
4	50953	10.21	434.67879667637
4	51510	10.31	436.79495642859
4	52067	10.41	438.91456702286
4	52624	10.51	441.03970328504
4	53181	10.61	443.172067295
4	53738	10.71	445.31305535106
4	54295	10.81	447.46381290418
4	54852	10.91	449.62527962311
4	55417	11.01	451.79822636351
4	55974	11.11	453.98328549549
4	56531	11.21	456.18097578283
4	57088	11.31	458.39172279249
4	57645	11.41	460.61587563761
4	58202	11.51	462.85372071256
4	58759	11.61	465.10549296047
4	59316	11.71	467.37138511655
4	59873	11.81	469.65155529078
4	60430	11.91	471.94611838904
4	60995	12.01	474.25486938154
4	61552	12.11	476.57696295231
4	62109	12.21	478.91097000003
4	62666	12.31	481.25496463406
4	63223	12.41	483.60661296565
4	63780	12.51	485.96326233121
4	64337	12.61	488.32203052255
4	64894	12.71	490.68002879051
4	65451	12.81	493.03471136068
4	66008	12.91	495.3839791283
4	66573	13.01	497.72611009635
4	67130	13.11	500.05969162751
4	67687	13.21	502.38356486714
4	68244	13.31	504.69677915082
4	68801	13.41	506.99855460261
4	69358	13.51	509.2882514526
4	69915	13.61	511.56534486665
4	70472	13.71	513.82940429793
4	71029	13.81	516.08007654812
4	71586	13.91	518.31707187155
4	72151	14.01	520.54015257587
4	72708	14.11	522.74912367056
4	73265	14.21	524.94382519547
4	73822	14.31	527.12412592756
4	74379	14.41	529.28991899932
4	74936	14.51	531.44127094857
4	75493	14.61	533.57879708136
4	76050	14.71	535.7037411323
4	76607	14.81	537.81788891872
4	77164	14.91	539.92347392484
4	77729	15.01	542.02308275274
4	78286	15.11	544.1195613208
4	78843	15.21	546.21585250279
4	79400	15.31	548.3146654519
4	79957	15.41	550.41824190391
4	80514	15.51	552.5284208629
4	81071	15.61	554.64671095279
4	81628	15.71	556.77434977061
4	82185	15.81	558.91235257701
4	82742	15.91	561.06155223931
4	83307	16.01	563.22263199882
4	83864	16.11	565.39615235137
4	84421	16.21	567.58257309879
4	84978	16.31	569.7822714387
4	85535	16.41	571.99555680454
4	86092	16.51	574.2226830395
4	86649	16.61	576.46385838342
4	87206	16.71	578.71925366549
4	87763	16.81	580.98900902515
4	88320	16.91	583.27323841107
4	88885	17.01	585.57184531926
4	89442	17.11	587.88413137949
4	89999	17.21	590.20878293048
4	90556	17.31	592.54396067542
4	91113	17.41	594.88739210225
4	91670	17.51	597.23646413641
4	92227	17.61	599.58831531048
4	92784	17.71	601.94001997938
4	93341	17.81	604.28892587894
4	93898	17.91	606.63284103734
4	94463	18.01	608.96996727421
4	95020	18.11	611.29882945533
4	95577	18.21	613.61821745688
4	96134	18.31	615.92713855581
4	96691	18.41	618.22477837348
4	97248	18.51	620.51046883575
4	97805	18.61	622.78366188912
4	98362	18.71	625.04390793884
4	98919	18.81	627.29083816064
4	99476	18.91	629.52414999014
4	100041	19.01	631.74359521916
4	100598	19.11	633.94897023055
4	101155	19.21	636.14010798733
4	101712	19.31	638.316871461
4	102269	19.41	640.47914915917
4	102826	19.51	642.62702624776
4	103383	19.61	644.76117026375
4	103940	19.71	646.88286894132
4	104497	19.81	648.99394174018
4	105054	19.91	651.09664668697
4	105619	20.01	653.19358702093
4	106176	20.11	655.28761842033
4	106733	20.21	657.38167287712
4	107290	20.31	659.47842368744
4	107847	20.41	661.58008122229
4	108404	20.51	663.68845875577
4	108961	20.61	665.8050438042
4	109518	20.71	667.93105664907
4	110075	20.81	670.06749834623
4	110632	20.91	672.21519011013
4	111197	21.01	674.37480562266
4	111754	21.11	676.5468975376
4	112311	21.21	678.73191922355
4	112868	21.31	680.93024260068
4	113425	21.41	683.14217277304
4	113982	21.51	685.36796003225
4	114539	21.61	687.60780970459
4	115096	21.71	689.86189022913
4	115653	21.81	692.1303397846
4	116210	21.91	694.41327077699
4	116775	22.01	696.7105939141
4	117332	22.11	699.0216302362
4	117889	22.21	701.34508238307
4	118446	22.31	703.67912352764
4	119003	22.41	706.02149026096
4	119560	22.51	708.36957568647
4	120117	22.61	710.72052196967
4	120674	22.71	713.07139946325
4	121231	22.81	715.41954266215
4	121788	22.91	717.76274801157
4	122353	23.01	720.09920782906
4	122910	23.11	722.42743918539
4	123467	23.21	724.7462255621
4	124024	23.31	727.05456899033
4	124581	23.41	729.35165078803
4	125138	23.51	731.63679935077
4	125695	23.61	733.909463729
4	126252	23.71	736.16919195218
4	126809	23.81	738.41561324707
4	127366	23.91	740.64842345044
4	127931	24.01	742.86737304254
4	128488	24.11	745.07225733024
4	129045	24.21	747.26290839388
4	129602	24.31	749.43918848086
4	130159	24.41	751.60098552363
4	130716	24.51	753.74838728276
4	131273	24.61	755.88206847887
4	131830	24.71	758.00332289985
4	132387	24.81	760.11397463862
4	132944	24.91	762.2162851066
4	133509	25.01	764.31285984297
4	134066	25.11	766.40655588189
4	134623	25.21	768.50030374057
4	135180	25.31	770.5967718151
4	135737	25.41	772.69816618958
4	136294	25.51	774.80629662134
4	136851	25.61	776.92264774175
4	137408	25.71	779.04843746561
4	137965	25.81	781.18466490727
4	138522	25.91	783.33214968849
4	139087	26.01	785.49156418457
4	139644	26.11	787.66345997746
4	140201	26.21	789.84828955647
4	140758	26.31	792.04642412044
4	141315	26.41	794.2581681817
4	141872	26.51	796.48377154643
4	142429	26.61	798.72343914269
4	142986	26.71	800.97733908289
4	143543	26.81	803.24560927773
4	144100	26.91	805.52836192038
4	144665	27.01	807.82550868185
4	145222	27.11	810.13637326837
4	145779	27.21	812.45966056635
4	146336	27.31	814.79354546822
4	146893	27.41	817.13576582126
4	147450	27.51	819.48371558256
4	148007	27.61	821.83453742095
4	148564	27.71	824.18530114204
4	149121	27.81	826.53333942261
4	149678	27.91	828.87644711718
4	150243	28.01	831.21281523842
4	150800	28.11	833.54095978661
4	151357	28.21	835.85966336515
4	151914	28.31	838.16792728477
4	152471	28.41	840.46493227246
4	153028	28.51	842.75000623896
4	153585	28.61	845.02259783702
4	154142	28.71	847.28225476986
4	154699	28.81	849.52860599656
4	155256	28.91	851.76134713435
4	155821	29.01	853.98022848334
4	156378	29.11	856.18504520266
4	156935	29.21	858.37562925142
4	157492	29.31	860.5518427776
4	158049	29.41	862.71357363465
4	158606	29.51	864.86090994061
4	159163	29.61	866.99452740545
4	159720	29.71	869.1157206508
4	160277	29.81	871.22631440767
4	160834	29.91	873.32857055369
4	161399	30.01	875.42509494483
4	161956	30.11	877.51874480205
4	162513	30.21	879.61245043954
4	163070	30.31	881.70887957865
4	163627	30.41	883.8102377132
4	164184	30.51	885.91833411626
4	164741	30.61	888.03465302196
4	165298	30.71	890.16041201921
4	165855	30.81	892.29660995502
4	166412	30.91	894.44406623183
4	166977	31.01	896.60345304504
4	167534	31.11	898.775321829
4	168091	31.21	900.96012495196
4	168648	31.31	903.15823351342
4	169205	31.41	905.36995194424
4	169762	31.51	907.59552998374
4	170319	31.61	909.83517250518
4	170876	31.71	912.08904757595
4	171433	31.81	914.35729306988
4	171990	31.91	916.6400211508
4	172555	32.01	918.9371436224
4	173112	32.11	921.24798455805
4	173669	32.21	923.57124915356
4	174226	32.31	925.90511253817
4	174783	32.41	928.24731273216
4	175340	32.51	930.59524381019
4	175897	32.61	932.94604851042
4	176454	32.71	935.29679656309
4	177011	32.81	937.6448203946
4	177568	32.91	939.98791464042
4	178133	33.01	942.3242701335
4	178690	33.11	944.65240272671
4	179247	33.21	946.9710949025
4	179804	33.31	949.27934787241
4	180361	33.41	951.57634228202
4	180918	33.51	953.86140597533
4	181475	33.61	956.13398755029
4	182032	33.71	958.3936346652
4	182589	33.81	960.63997624229
4	183146	33.91	962.87270786854
4	183711	34.01	965.09157981926
4	184268	34.11	967.29638723323
4	184825	34.21	969.48696205288
4	185382	34.31	971.66316641247
4	185939	34.41	973.82488815458
4	186496	34.51	975.97221544649
4	187053	34.61	978.10582413442
4	187610	34.71	980.22700895481
4	188167	34.81	982.33759472655
4	188724	34.91	984.43984339149
4	189289	35.01	986.53636084921
4	189846	35.11	988.6300043464
4	190403	35.21	990.72370416929
4	190960	35.31	992.82012794631
4	191517	35.41	994.92148108998
4	192074	35.51	997.0295728067
4	192631	35.61	999.14588727586
4	193188	35.71	1001.2716420415
4	193745	35.81	1003.4078359139
4	194302	35.91	1005.5552882651
4	194867	36.01	1007.7146712659
4	195424	36.11	1009.8865363303
4	195981	36.21	1012.0713358098
4	196538	36.31	1014.2694407902
4	197095	36.41	1016.4811556913
4	197652	36.51	1018.706730243
4	198209	36.61	1020.9463693112
4	198766	36.71	1023.2002409571
4	199323	36.81	1025.4684830492
4	199880	36.91	1027.7512077476
4	200445	37.01	1030.048326874
4	201002	37.11	1032.3591645525
4	201559	37.21	1034.6824260215
4	202116	37.31	1037.0162864428
4	202673	37.41	1039.3584838606
4	203230	37.51	1041.7064123656
4	203787	37.61	1044.0572147056
4	204344	37.71	1046.4079606004
4	204901	37.81	1048.7559824421
4	205458	37.91	1051.0990748357
4	206023	38.01	1053.4354285897
4	206580	38.11	1055.7635595365
4	207137	38.21	1058.0822501419
4	207694	38.31	1060.3905016039
4	208251	38.41	1062.6874945567
4	208808	38.51	1064.9725568352
4	209365	38.61	1067.2451370298
4	209922	38.71	1069.5047827926
4	210479	38.81	1071.7511230408
4	211036	38.91	1073.9838533571
4	211601	39.01	1076.2027240136
4	212158	39.11	1078.407530146
4	212715	39.21	1080.5981036946
4	213272	39.31	1082.7743067918
4	213829	39.41	1084.9360272787
4	214386	39.51	1087.0833533292
4	214943	39.61	1089.2169608084
4	215500	39.71	1091.3381444685
4	216057	39.81	1093.4487291406
4	216614	39.91	1095.5509767752
4	217179	40.01	1097.6474932781
4	217736	40.11	1099.7411358994
4	218293	40.21	1101.8348349215
4	218850	40.31	1103.9312579601
4	219407	40.41	1106.0326104164
4	219964	40.51	1108.1407014877
4	220521	40.61	1110.2570153459
4	221078	40.71	1112.3827695288
4	221635	40.81	1114.5189628415
4	222192	40.91	1116.6664146522
4	222757	41.01	1118.8257971279
4	223314	41.11	1120.99766168
4	223871	41.21	1123.1824606577
4	224428	41.31	1125.380565145
4	224985	41.41	1127.59227956
4	225542	41.51	1129.8178536314
4	226099	41.61	1132.0574922241
4	226656	41.71	1134.3113633982
4	227213	41.81	1136.5796050219
4	227770	41.91	1138.8623292544
4	228335	42.01	1141.1594479202
4	228892	42.11	1143.4702851501
4	229449	42.21	1145.7935461885
4	230006	42.31	1148.1274062017
4	230563	42.41	1150.4696032371
4	231120	42.51	1152.8175313878
4	231677	42.61	1155.1683334027
4	232234	42.71	1157.5190790004
4	232791	42.81	1159.867100568
4	233348	42.91	1162.2101927066
4	233913	43.01	1164.5465462211
4	234470	43.11	1166.8746769411
4	235027	43.21	1169.1933673303
4	235584	43.31	1171.5016185846
4	236141	43.41	1173.7986113368
4	236698	43.51	1176.0836734204
4	237255	43.61	1178.3562534249
4	237812	43.71	1180.6158990015
4	238369	43.81	1182.8622390667
4	238926	43.91	1185.0949692026
4	239491	44.01	1187.3138396808
4	240048	44.11	1189.5186456368
4	240605	44.21	1191.7092190104
4	241162	44.31	1193.8854219337
4	241719	44.41	1196.0471422477
4	242276	44.51	1198.1944681272
4	242833	44.61	1200.3280754399
4	243390	44.71	1202.4492589403
4	243947	44.81	1204.5598434609
4	244504	44.91	1206.6620909536
4	245069	45.01	1208.758607325
4	245626	45.11	1210.8522498257
4	246183	45.21	1212.9459487375
4	246740	45.31	1215.0423716744
4	247297	45.41	1217.1437240361
4	247854	45.51	1219.2518150185
4	248411	45.61	1221.3681287926
4	248968	45.71	1223.4938828952
4	249525	45.81	1225.6300761308
4	250082	45.91	1227.777527867
4	250647	46.01	1229.9369102705
4	251204	46.11	1232.108774752
4	251761	46.21	1234.2935736607
4	252318	46.31	1236.49167808
4	252875	46.41	1238.703392428
4	253432	46.51	1240.9289664333
4	253989	46.61	1243.1686049605
4	254546	46.71	1245.4224760696
4	255103	46.81	1247.6907176288
4	255660	46.91	1249.9734417972
4	256225	47.01	1252.2705603995
4	256782	47.11	1254.5813975677
4	257339	47.21	1256.9046585468
4	257896	47.31	1259.2385185038
4	258453	47.41	1261.5807154865
4	259010	47.51	1263.9286435884
4	259567	47.61	1266.2794455586
4	260124	47.71	1268.6301911153
4	260681	47.81	1270.9782126452
4	261238	47.91	1273.3213047487
4	261803	48.01	1275.6576582301
4	262360	48.11	1277.985788919
4	262917	48.21	1280.3044792784
4	263474	48.31	1282.612730504
4	264031	48.41	1284.9097232286
4	264588	48.51	1287.1947852854
4	265145	48.61	1289.4673652637
4	265702	48.71	1291.7270108147
4	266259	48.81	1293.9733508546
4	266816	48.91	1296.2060809657
4	267381	49.01	1298.4249514194
4	267938	49.11	1300.629757351
4	268495	49.21	1302.8203307005
4	269052	49.31	1304.9965335999
4	269609	49.41	1307.1582538901
4	270166	49.51	1309.3055797461
4	270723	49.61	1311.4391870359
4	271280	49.71	1313.5603705142
4	271837	49.81	1315.6709550139
4	272394	49.91	1317.7732024872
4	272959	50.01	1319.8697188404
4	273516	50.11	1321.9633613245
4	274073	50.21	1324.0570602211
4	274630	50.31	1326.153483144
4	275187	50.41	1328.2548354927
4	275744	50.51	1330.3629264629
4	276301	50.61	1332.4792402253
4	276858	50.71	1334.6049943169
4	277415	50.81	1336.7411875419
4	277972	50.91	1338.8886392679
4	278537	51.01	1341.0480216613
4	279094	51.11	1343.2198861332
4	279651	51.21	1345.4046850323
4	280208	51.31	1347.6027894423
4	280765	51.41	1349.8145037811
4	281322	51.51	1352.0400777773
4	281879	51.61	1354.2797162954
4	282436	51.71	1356.5335873956
4	282993	51.81	1358.8018289459
4	283550	51.91	1361.0845531054
4	284115	52.01	1363.381671699
4	284672	52.11	1365.6925088587
4	285229	52.21	1368.0157698296
4	285786	52.31	1370.3496297789
4	286343	52.41	1372.6918267544
4	286900	52.51	1375.0397548495
4	287457	52.61	1377.3905568136
4	288014	52.71	1379.7413023647
4	288571	52.81	1382.0893238893
4	289128	52.91	1384.432415988
4	289693	53.01	1386.7687694649
4	290250	53.11	1389.0969001494
4	290807	53.21	1391.4155905047
4	291364	53.31	1393.7238417265
4	291921	53.41	1396.0208344472
4	292478	53.51	1398.3058965003
4	293035	53.61	1400.5784764751
4	293592	53.71	1402.8381220225
4	294149	53.81	1405.084462059
4	294706	53.91	1407.3171921667
4	295271	54.01	1409.5360626169
4	295828	54.11	1411.7408685452
4	296385	54.21	1413.9314418914
4	296942	54.31	1416.1076447875
4	297499	54.41	1418.2693650743
4	298056	54.51	1420.4166909271
4	298613	54.61	1422.5502982138
4	299170	54.71	1424.671481689
4	299727	54.81	1426.7820661859
4	300284	54.91	1428.8843136565
4	300849	55.01	1430.9808300072
4	301406	55.11	1433.074472489
4	301963	55.21	1435.1681713836
4	302520	55.31	1437.2645943045
4	303077	55.41	1439.3659466513
4	303634	55.51	1441.4740376199
4	304191	55.61	1443.5903513807
4	304748	55.71	1445.7161054708
4	305305	55.81	1447.8522986944
4	305862	55.91	1449.9997504189
4	306427	56.01	1452.159132811
4	306984	56.11	1454.3309972815
4	307541	56.21	1456.5157961793
4	308098	56.31	1458.713900588
4	308655	56.41	1460.9256149255
4	309212	56.51	1463.1511889205
4	309769	56.61	1465.3908274373
4	310326	56.71	1467.6446985363
4	310883	56.81	1469.9129400854
4	311440	56.91	1472.1956642437
4	312005	57.01	1474.4927828361
4	312562	57.11	1476.8036199946
4	313119	57.21	1479.1268809644
4	313676	57.31	1481.4607409126
4	314233	57.41	1483.8029378871
4	314790	57.51	1486.1508659813
4	315347	57.61	1488.5016679445
4	315904	57.71	1490.8524134948
4	316461	57.81	1493.2004350188
4	317018	57.91	1495.5435271167
4	317583	58.01	1497.879880593
4	318140	58.11	1500.208011277
4	318697	58.21	1502.5267016317
4	319254	58.31	1504.8349528529
4	319811	58.41	1507.1319455731
4	320368	58.51	1509.4170076258
4	320925	58.61	1511.6895876
4	321482	58.71	1513.9492331469
4	322039	58.81	1516.1955731829
4	322596	58.91	1518.4283032901
4	323161	59.01	1520.6471737399
4	323718	59.11	1522.8519796678
4	324275	59.21	1525.0425530135
4	324832	59.31	1527.2187559091
4	325389	59.41	1529.3804761955
4	325946	59.51	1531.5278020478
4	326503	59.61	1533.6614093341
4	327060	59.71	1535.7825928089
4	327617	59.81	1537.8931773054
3	232	1.11	22.222221380388
3	788	1.21	22.222221400033
3	1344	1.31	22.222221430895
3	1900	1.41	22.222221470405
3	2456	1.51	22.222221516302
3	3012	1.61	22.222221566615
3	3568	1.71	22.222221619648
3	4124	1.81	22.222221673961
3	4680	1.91	22.22222172835
3	5244	2.01	22.222221781827
3	5800	2.11	22.222221833594
3	6356	2.21	22.222221883033
3	6912	2.31	22.222221929673
3	7468	2.41	22.222221973181
3	8024	2.51	22.22222201334
3	8580	2.61	22.22222205003
3	9136	2.71	22.222222083218
3	9692	2.81	22.222222112937
3	10248	2.91	22.222222139276
3	10812	3.01	22.222222162372
3	11368	3.11	22.222222182391
3	11924	3.21	22.222222199529
3	12480	3.31	22.222222213995
3	13036	3.41	22.222222226009
3	13592	3.51	22.222222235797
3	14148	3.61	22.222222243584
3	14704	3.71	22.222222249588
3	15260	3.81	22.222222254023
3	15816	3.91	22.22222225709
3	16380	4.01	22.222222258982
3	16936	4.11	22.222222259874
3	17492	4.21	22.22222225993
3	18048	4.31	22.2222222593
3	18604	4.41	22.222222258118
3	19160	4.51	22.222222256505
3	19716	4.61	22.222222254566
3	20272	4.71	22.222222252396
3	20828	4.81	22.222222250075
3	21384	4.91	22.222222247671
3	21949	5.01	22.222222245242
3	22506	5.11	22.222290507125
3	23063	5.21	22.226504077641
3	23620	5.31	22.240220338524
3	24177	5.41	22.267500757653
3	24734	5.51	22.311166408855
3	25291	5.61	22.372508246834
3	25848	5.71	22.449772173803
3	26405	5.81	22.540103259952
3	26962	5.91	22.641153967919
3	27527	6.01	22.750998499419
3	28084	6.11	22.868057029105
3	28641	6.21	22.991033549938
3	29198	6.31	23.118864884746
3	29755	6.41	23.250678857945
3	30312	6.51	23.385758398132
3	30869	6.61	23.522833432233
3	31426	6.71	23.657796347927
3	31983	6.81	23.785829581157
3	32540	6.91	23.902426182221
3	33105	7.01	24.003469344582
3	33662	7.11	24.085300499944
3	34219	7.21	24.144775797594
3	34776	7.31	24.179310887614
3	35333	7.41	24.18693697487
3	35890	7.51	24.167648012512
3	36447	7.61	24.124876590017
3	37004	7.71	24.062841371271
3	37561	7.81	23.985003130021
3	38118	7.91	23.894200906128
3	38683	8.01	23.792763701114
3	39240	8.11	23.682602107418
3	39797	8.21	23.565283476299
3	40354	8.31	23.442093581698
3	40911	8.41	23.314087206082
3	41468	8.51	23.182129638453
3	42025	8.61	23.046930717174
3	42582	8.71	22.90907275694
3	43139	8.81	22.769033458618
3	43696	8.91	22.627204703306
3	44261	9.01	22.483907969993
3	44818	9.11	22.339406983423
3	45375	9.21	22.193918089742
3	45932	9.31	22.047618768141
3	46489	9.41	21.900654613374
3	47046	9.51	21.753242751854
3	47603	9.61	21.609901385757
3	48160	9.71	21.477532883517
3	48717	9.81	21.362073971413
3	49274	9.91	21.268410541013
3	49839	10.01	21.200386497448
3	50396	10.11	21.160826131916
3	50953	10.21	21.151517345739
3	51510	10.31	21.170320646314
3	52067	10.41	21.212693656992
3	52624	10.51	21.274402039281
3	53181	10.61	21.351972160799
3	53738	10.71	21.442554433126
3	54295	10.81	21.543811201247
3	54852	10.91	21.653824773844
3	55417	11.01	21.771021976106
3	55974	11.11	21.894112256751
3	56531	11.21	22.022036914228
3	57088	11.31	22.15392744452
3	57645	11.41	22.289071371833
3	58202	11.51	22.426884217862
3	58759	11.61	22.566886506821
3	59316	11.71	22.708684901566
3	59873	11.81	22.851956728639
3	60430	11.91	22.996030636022
3	60995	12.01	23.135871741664
3	61552	12.11	23.265091831195
3	62109	12.21	23.37815370659
3	62666	12.31	23.470398479481
3	63223	12.41	23.538058615042
3	63780	12.51	23.578257676094
3	64337	12.61	23.589039899577
3	64894	12.71	23.571771817424
3	65451	12.81	23.530658220569
3	66008	12.91	23.469982996268
3	66573	13.01	23.39326042415
3	67130	13.11	23.303373437532
3	67687	13.21	23.20268704586
3	68244	13.31	23.093141380613
3	68801	13.41	22.97632802535
3	69358	13.51	22.853552632938
3	69915	13.61	22.725886293488
3	70472	13.71	22.594207673951
3	71029	13.81	22.459237587264
3	71586	13.91	22.321567351098
3	72151	14.01	22.181682051897
3	72708	14.11	22.039979629502
3	73265	14.21	21.896786533182
3	73822	14.31	21.752370565044
3	74379	14.41	21.606990468916
3	74936	14.51	21.46377531614
3	75493	14.61	21.329003640752
3	76050	14.71	21.208703411767
3	76607	14.81	21.107966374326
3	77164	14.91	21.030937646541
3	77729	15.01	20.980819133086
3	78286	15.11	20.959864153028
3	78843	15.21	20.968113302143
3	79400	15.31	21.001828232614
3	79957	15.41	21.056433973525
3	80514	15.51	21.128177455263
3	81071	15.61	21.213979853553
3	81628	15.71	21.311315460134
3	82185	15.81	21.418112314529
3	82742	15.91	21.532670687482
3	83307	16.01	21.65359620899
3	83864	16.11	21.779745009989
3	84421	16.21	21.910178719438
3	84978	16.31	22.04412754625
3	85535	16.41	22.180959993615
3	86092	16.51	22.320158014196
3	86649	16.61	22.461296628745
3	87206	16.71	22.604027206256
3	87763	16.81	22.748063747876
3	88320	16.91	22.893121062247
3	88885	17.01	23.035415892366
3	89442	17.11	23.168450652444
3	89999	17.21	23.28637522879
3	90556	17.31	23.384255235879
3	91113	17.41	23.458083279214
3	91670	17.51	23.504776599185
3	92227	17.61	23.522191087294
3	92784	17.71	23.510795234811
3	93341	17.81	23.474498911582
3	93898	17.91	23.417775529511
3	94463	18.01	23.344294844447
3	95020	18.11	23.257067334362
3	95577	18.21	23.158562639743
3	96134	18.31	23.050806725964
3	96691	18.41	22.935461590275
3	97248	18.51	22.813890649294
3	97805	18.61	22.687212379529
3	98362	18.71	22.556344321276
3	98919	18.81	22.422039177162
3	99476	18.91	22.284914425505
3	100041	19.01	22.145476613593
3	100598	19.11	22.004141286635
3	101155	19.21	21.861249336433
3	101712	19.31	21.717080413001
3	102269	19.41	21.571909863106
3	102826	19.51	21.429278340793
3	103383	19.61	21.295604178514
3	103940	19.71	21.176803340552
3	104497	19.81	21.077868481133
3	105054	19.91	21.002857998561
3	105619	20.01	20.954898781713
3	106176	20.11	20.936175392548
3	106733	20.21	20.946407816827
3	107290	20.31	20.981749723707
3	107847	20.41	21.03769015195
3	108404	20.51	21.110528542171
3	108961	20.61	21.197229146774
3	109518	20.71	21.295301595376
3	110075	20.81	21.402702916871
3	110632	20.91	21.517757163382
3	111197	21.01	21.639089473919
3	111754	21.11	21.765571983607
3	112311	21.21	21.896279450413
3	112868	21.31	22.030452853606
3	113425	21.41	22.167469531823
3	113982	21.51	22.306818685871
3	114539	21.61	22.448081282503
3	115096	21.71	22.590913568504
3	115653	21.81	22.735033546511
3	116210	21.91	22.880162447437
3	116775	22.01	23.022670267421
3	117332	22.11	23.156108357089
3	117889	22.21	23.274585173836
3	118446	22.31	23.373129675149
3	119003	22.41	23.447702381669
3	119560	22.51	23.495192775121
3	120117	22.61	23.513431301619
3	120674	22.71	23.502767871627
[...]
36	53229	10.669566983283	0.100000699805
36	53786	10.76955468724	0.099987703957
36	54343	10.869555395406	0.100000708166
36	54900	10.969556107835	0.100000712429
36	55465	11.06955682458	0.100000716745
36	56022	11.169557545687	0.100000721107
36	56579	11.269558271199	0.100000725512
36	57136	11.369559001157	0.100000729958
36	57693	11.4695597356	0.100000734443
36	58250	11.569560474561	0.100000738961
36	58807	11.66956121807	0.100000743509
36	59364	11.769561966159	0.100000748089
36	59921	11.869562718854	0.100000752695
36	60478	11.969563476185	0.100000757331
36	61043	12.069564238169	0.100000761984
36	61600	12.169565004827	0.100000766658
36	62157	12.269565776162	0.100000771335
36	62714	12.369566552166	0.100000776004
36	63271	12.469554332817	0.099987780651
36	63828	12.569555118077	0.10000078526
36	64385	12.669555907893	0.100000789816
36	64942	12.769556702193	0.1000007943
36	65499	12.869557500897	0.100000798704
36	66056	12.969558303919	0.100000803022
36	66621	13.069559111166	0.100000807247
36	67178	13.169559922544	0.100000811378
36	67735	13.269560737957	0.100000815413
36	68292	13.369561557313	0.100000819356
36	68849	13.469562380524	0.100000823211
36	69406	13.5695632075	0.100000826976
36	69963	13.66956403816	0.10000083066
36	70520	13.769564872423	0.100000834263
36	71077	13.86956571021	0.100000837787
36	71634	13.969566551447	0.100000841237
36	72199	14.069554396061	0.099987844614
36	72756	14.169555243983	0.100000847922
36	73313	14.269556095142	0.100000851159
36	73870	14.36955694947	0.100000854328
36	74427	14.469557806898	0.100000857428
36	74984	14.569558667359	0.100000860461
36	75541	14.66955953079	0.100000863431
36	76098	14.769560397141	0.100000866351
36	76655	14.869561266367	0.100000869226
36	77212	14.969562138441	0.100000872074
36	77777	15.069563013348	0.100000874907
36	78334	15.169563891093	0.100000877745
36	78891	15.269564771692	0.100000880599
36	79448	15.369565655176	0.100000883484
36	80005	15.469566541585	0.100000886409
36	80562	15.569554430961	0.099987889376
36	81119	15.669555323351	0.10000089239
36	81676	15.769556218801	0.10000089545
36	82233	15.869557117359	0.100000898558
36	82790	15.969558019065	0.100000901706
36	83355	16.069558923962	0.100000904897
36	83912	16.169559832086	0.100000908124
36	84469	16.269560743469	0.100000911383
36	85026	16.369561658144	0.100000914675
36	85583	16.469562576137	0.100000917993
36	86140	16.569563497474	0.100000921337
36	86697	16.669564422177	0.100000924703
36	87254	16.769565350269	0.100000928092
36	87811	16.86956628177	0.100000931501
36	88368	16.969554216701	0.099987934931
36	88933	17.069555155077	0.100000938376
36	89490	17.169556096915	0.100000941838
36	90047	17.269557042214	0.100000945299
36	90604	17.369557990967	0.100000948753
36	91161	17.469558943153	0.100000952186
36	91718	17.569559898734	0.100000955581
36	92275	17.669560857654	0.10000095892
36	92832	17.769561819846	0.100000962192
36	93389	17.869562785228	0.100000965382
36	93946	17.969563753714	0.100000968486
36	94511	18.069564725208	0.100000971494
36	95068	18.169565699615	0.100000974407
36	95625	18.269566676842	0.100000977227
36	96182	18.369554656792	0.09998797995
36	96739	18.469555639376	0.100000982584
36	97296	18.569556624502	0.100000985126
36	97853	18.669557612087	0.100000987585
36	98410	18.76955860205	0.100000989963
36	98967	18.869559594312	0.100000992262
36	99524	18.969560588797	0.100000994485
36	100089	19.069561585436	0.100000996639
36	100646	19.169562584153	0.100000998717
36	101203	19.269563584881	0.100001000728
36	101760	19.369564587553	0.100001002672
36	102317	19.469565592097	0.100001004544
36	102874	19.569566598453	0.100001006356
36	103431	19.669554606558	0.099988008105
36	103988	19.76955561636	0.100001009802
36	104545	19.869556627825	0.100001011465
36	105102	19.969557640923	0.100001013098
36	105667	20.069558655645	0.100001014722
36	106224	20.169559672	0.100001016355
36	106781	20.269560690007	0.100001018007
36	107338	20.369561709704	0.100001019697
36	107895	20.46956273113	0.100001021426
36	108452	20.569563754333	0.100001023203
36	109009	20.669564779362	0.100001025029
36	109566	20.769565806268	0.100001026906
36	110123	20.8695668351	0.100001028832
36	110680	20.969554865905	0.099988030805
36	111245	21.069555898729	0.100001032824
36	111802	21.169556933609	0.10000103488
36	112359	21.269557970583	0.100001036974
36	112916	21.369559009686	0.100001039103
36	113473	21.46956005095	0.100001041264
36	114030	21.569561094404	0.100001043454
36	114587	21.669562140077	0.100001045673
36	115144	21.769563187992	0.100001047915
36	115701	21.869564238177	0.100001050185
36	116258	21.969565290657	0.10000105248
36	116823	22.069566345454	0.100001054797
36	117380	22.169554402584	0.09998805713
36	117937	22.26955546206	0.100001059476
36	118494	22.369556523876	0.100001061816
36	119051	22.469557588015	0.100001064139
36	119608	22.569558654444	0.100001066429
36	120165	22.669559723119	0.100001068675
36	120722	22.769560793976	0.100001070857
36	121279	22.86956186694	0.100001072964
36	121836	22.969562941926	0.100001074986
36	122401	23.06956401885	0.100001076924
36	122958	23.169565097621	0.100001078771
36	123515	23.269566178149	0.100001080528
36	124072	23.369554260347	0.099988082198
36	124629	23.469555344127	0.10000108378
36	125186	23.56955642941	0.100001085283
36	125743	23.669557516115	0.100001086705
36	126300	23.769558604165	0.10000108805
36	126857	23.869559693492	0.100001089327
36	127414	23.969560784022	0.10000109053
36	127979	24.069561875693	0.100001091671
36	128536	24.169562968439	0.100001092746
36	129093	24.269564062196	0.100001093757
36	129650	24.369565156902	0.100001094706
36	130207	24.469566252498	0.100001095596
36	130764	24.569554348922	0.099988096424
36	131321	24.669555446123	0.100001097201
36	131878	24.769556544058	0.100001097935
36	132435	24.869557642693	0.100001098635
36	132992	24.969558742008	0.100001099315
36	133557	25.069559842001	0.100001099993
36	134114	25.169560942687	0.100001100686
36	134671	25.269562044094	0.100001101407
36	135228	25.369563146263	0.100001102169
36	135785	25.469564249243	0.10000110298
36	136342	25.569565353089	0.100001103846
36	136899	25.669566457857	0.100001104768
36	137456	25.769554563602	0.099988105745
36	138013	25.869555670383	0.100001106781
36	138570	25.969556778253	0.10000110787
36	139135	26.069557887262	0.100001109009
36	139692	26.169558997455	0.100001110193
36	140249	26.26956010888	0.100001111425
36	140806	26.369561221576	0.100001112696
36	141363	26.469562335582	0.100001114006
36	141920	26.569563450933	0.100001115351
36	142477	26.669564567667	0.100001116734
36	143034	26.769565685812	0.100001118145
36	143591	26.869566805403	0.100001119591
36	144148	26.969554926472	0.099988121069
36	144713	27.06955604905	0.100001122578
36	145270	27.169557173158	0.100001124108
36	145827	27.269558298813	0.100001125655
36	146384	27.369559426021	0.100001127208
36	146941	27.469560554768	0.100001128747
36	147498	27.569561685033	0.100001130265
36	148055	27.669562816773	0.10000113174
36	148612	27.769563949933	0.10000113316
36	149169	27.869565084444	0.100001134511
36	149726	27.969566220231	0.100001135787
36	150291	28.069554357212	0.099988136981
36	150848	28.169555495307	0.100001138095
36	151405	28.269556634431	0.100001139124
36	151962	28.369557774502	0.100001140071
36	152519	28.469558915443	0.100001140941
36	153076	28.569560057176	0.100001141733
36	153633	28.669561199629	0.100001142453
36	154190	28.769562342735	0.100001143106
36	154747	28.869563486429	0.100001143694
36	155304	28.969564630645	0.100001144216
36	155869	29.069565775326	0.100001144681
36	156426	29.169566920412	0.100001145086
36	156983	29.269555065845	0.099988145433
36	157540	29.369556211574	0.100001145729
36	158097	29.469557357539	0.100001145965
36	158654	29.569558503693	0.100001146154
36	159211	29.669559649986	0.100001146293
36	159768	29.76956079638	0.100001146394
36	160325	29.869561942849	0.100001146469
36	160882	29.969563089384	0.100001146535
36	161447	30.069564235986	0.100001146602
36	162004	30.169565382673	0.100001146687
36	162561	30.269566529482	0.100001146809
36	163118	30.36955467646	0.099988146978
36	163675	30.469555823663	0.100001147203
36	164232	30.569556971149	0.100001147486
36	164789	30.669558118983	0.100001147834
36	165346	30.769559267227	0.100001148244
36	165903	30.869560415944	0.100001148717
36	166460	30.969561565191	0.100001149247
36	167025	31.069562715026	0.100001149835
36	167582	31.169563865504	0.100001150478
36	168139	31.269565016671	0.100001151167
36	168696	31.369566168578	0.100001151907
36	169253	31.469554321265	0.099988152687
36	169810	31.569555474776	0.100001153511
36	170367	31.669556629152	0.100001154376
36	170924	31.769557784432	0.10000115528
36	171481	31.869558940654	0.100001156222
36	172038	31.969560097854	0.1000011572
36	172603	32.069561256066	0.100001158212
36	173160	32.169562415322	0.100001159256
36	173717	32.269563575642	0.10000116032
36	174274	32.369564737037	0.100001161395
36	174831	32.469565899502	0.100001162465
36	175388	32.569567063017	0.100001163515
36	175945	32.669555227547	0.09998816453
36	176502	32.769556393041	0.100001165494
36	177059	32.869557559436	0.100001166395
36	177616	32.969558726662	0.100001167226
36	178181	33.069559894645	0.100001167983
36	178738	33.169561063305	0.10000116866
36	179295	33.269562232559	0.100001169254
36	179852	33.369563402325	0.100001169766
36	180409	33.469564572519	0.100001170194
36	180966	33.569565743057	0.100001170538
36	181523	33.669566913854	0.100001170797
36	182080	33.769555084825	0.099988170971
36	182637	33.869556255885	0.10000117106
36	183194	33.969557426945	0.10000117106
36	183759	34.069558597922	0.100001170977
36	184316	34.169559768723	0.100001170801
36	184873	34.269560939259	0.100001170536
36	185430	34.369562109438	0.100001170179
36	185987	34.469563279171	0.100001169733
36	186544	34.569564448363	0.100001169192
36	187101	34.669565616927	0.100001168564
36	187658	34.769566784783	0.100001167856
36	188215	34.869554951863	0.09998816708
36	188772	34.969556118113	0.10000116625
36	189337	35.069557283497	0.100001165384
36	189894	35.169558447999	0.100001164502
36	190451	35.269559611619	0.10000116362
36	191008	35.369560774374	0.100001162755
36	191565	35.469561936296	0.100001161922
36	192122	35.569563097426	0.10000116113
36	192679	35.669564257815	0.100001160389
36	193236	35.769565417526	0.100001159711
36	193793	35.869566576621	0.100001159095
36	194350	35.969554735173	0.099988158552
36	194915	36.069555893257	0.100001158084
36	195472	36.169557050952	0.100001157695
36	196029	36.269558208341	0.100001157389
36	196586	36.369559365506	0.100001157165
36	197143	36.469560522536	0.10000115703
36	197700	36.569561679521	0.100001156985
36	198257	36.669562836549	0.100001157028
36	198814	36.76956399371	0.100001157161
36	199371	36.8695651511	0.10000115739
36	199928	36.969566308808	0.100001157708
36	200493	37.069554466927	0.099988158119
36	201050	37.169555625544	0.100001158617
36	201607	37.269556784733	0.100001159189
36	202164	37.369557944561	0.100001159828
36	202721	37.469559105076	0.100001160515
36	203278	37.569560266309	0.100001161233
36	203835	37.669561428272	0.100001161963
36	204392	37.769562590955	0.100001162683
36	204949	37.869563754336	0.100001163381
36	205506	37.969564918375	0.100001164039
36	206071	38.06956608302	0.100001164645
36	206628	38.16955424821	0.09998816519
36	207185	38.269555413879	0.100001165669
36	207742	38.369556579951	0.100001166072
36	208299	38.469557746345	0.100001166394
36	208856	38.569558912978	0.100001166633
36	209413	38.669560079761	0.100001166783
36	209970	38.769561246603	0.100001166842
36	210527	38.869562413411	0.100001166808
36	211084	38.969563580089	0.100001166678
36	211649	39.06956474654	0.100001166451
36	212206	39.169565912667	0.100001166127
36	212763	39.26955407837	0.099988165703
36	213320	39.369555243548	0.100001165178
36	213877	39.4695564081	0.100001164552
36	214434	39.569557571926	0.100001163826
36	214991	39.669558734932	0.100001163006
36	215548	39.769559897034	0.100001162102
36	216105	39.869561058157	0.100001161123
36	216662	39.969562218246	0.100001160089
36	217227	40.069563377263	0.100001159017
36	217784	40.169564535188	0.100001157925
36	218341	40.26956569202	0.100001156832
36	218898	40.369566847778	0.100001155758
36	219455	40.46955500249	0.099988154712
36	220012	40.569556156201	0.100001153711
36	220569	40.669557308963	0.100001152762
36	221126	40.769558460834	0.100001151871
36	221683	40.86955961188	0.100001151046
36	222240	40.969560762174	0.100001150294
36	222805	41.069561911794	0.10000114962
36	223362	41.169563060816	0.100001149022
36	223919	41.269564209323	0.100001148507
36	224476	41.369565357403	0.10000114808
36	225033	41.469566505137	0.100001147734
36	225590	41.569554652619	0.099988147482
36	226147	41.669555799935	0.100001147316
36	226704	41.769556947177	0.100001147242
36	227261	41.869558094438	0.100001147261
36	227818	41.969559241809	0.100001147371
36	228383	42.069560389381	0.100001147572
36	228940	42.16956153724	0.100001147859
36	229497	42.269562685462	0.100001148222
36	230054	42.369563834108	0.100001148646
36	230611	42.46956498323	0.100001149122
36	231168	42.569566132855	0.100001149625
36	231725	42.669554282996	0.099988150141
36	232282	42.769555433646	0.10000115065
36	232839	42.869556584776	0.10000115113
36	233396	42.969557736349	0.100001151573
36	233961	43.069558888312	0.100001151963
36	234518	43.169560040603	0.100001152291
36	235075	43.269561193159	0.100001152556
36	235632	43.369562345901	0.100001152742
36	236189	43.469563498749	0.100001152848
36	236746	43.56956465162	0.100001152871
36	237303	43.669565804425	0.100001152805
36	237860	43.769566957072	0.100001152647
36	238417	43.869555109468	0.099988152396
36	238974	43.969556261519	0.100001152051
36	239539	44.06955741313	0.100001151611
36	240096	44.169558564199	0.100001151069
36	240653	44.26955971463	0.100001150431
36	241210	44.36956086432	0.10000114969
36	241767	44.46956201317	0.10000114885
36	242324	44.56956316108	0.10000114791
36	242881	44.669564307959	0.100001146879
36	243438	44.76956545372	0.100001145761
36	243995	44.869566598292	0.100001144572
36	244552	44.969554741619	0.099988143327
36	245117	45.069555883662	0.100001142043
36	245674	45.169557024404	0.100001140742
36	246231	45.269558163842	0.100001139438
36	246788	45.369559301997	0.100001138155
36	247345	45.469560438898	0.100001136901
36	247902	45.569561574587	0.100001135689
36	248459	45.66956270912	0.100001134533
36	249016	45.769563842555	0.100001133435
36	249573	45.869564974962	0.100001132407
36	250130	45.969566106411	0.100001131449
36	250695	46.069554236981	0.09998813057
36	251252	46.16955536675	0.100001129769
36	251809	46.269556495802	0.100001129052
36	252366	46.369557624222	0.10000112842
36	252923	46.469558752097	0.100001127875
36	253480	46.569559879519	0.100001127422
36	254037	46.669561006576	0.100001127057
36	254594	46.76956213336	0.100001126784
36	255151	46.869563259964	0.100001126604
36	255708	46.969564386482	0.100001126518
36	256273	47.069565513005	0.100001126523
36	256830	47.169566639621	0.100001126616
36	257387	47.269554766403	0.099988126782
36	257944	47.369555893416	0.100001127013
36	258501	47.469557020715	0.100001127299
36	259058	47.569558148325	0.10000112761
36	259615	47.669559276261	0.100001127936
36	260172	47.769560404515	0.100001128254
36	260729	47.869561533063	0.100001128548
36	261286	47.969562661864	0.100001128801
36	261851	48.06956379087	0.100001129006
36	262408	48.16956492002	0.10000112915
36	262965	48.26956604925	0.10000112923
36	263522	48.36955417848	0.09998812923
36	264079	48.469555307637	0.100001129157
36	264636	48.569556436634	0.100001128997
36	265193	48.669557565385	0.100001128751
36	265750	48.7695586938	0.100001128415
36	266307	48.869559821788	0.100001127988
36	266864	48.969560949253	0.100001127465
36	267429	49.069562076101	0.100001126848
36	267986	49.169563202235	0.100001126134
36	268543	49.269564327556	0.100001125321
36	269100	49.369565451966	0.10000112441
36	269657	49.469566575364	0.100001123398
36	270214	49.569554697652	0.099988122288
36	270771	49.66955581874	0.100001121088
36	271328	49.769556938543	0.100001119803
36	271885	49.869558056988	0.100001118445
36	272442	49.969559174024	0.100001117036
36	273007	50.069560289612	0.100001115588
36	273564	50.169561403735	0.100001114123
36	274121	50.269562516393	0.100001112658
36	274678	50.369563627605	0.100001111212
36	275235	50.469564737405	0.1000011098
36	275792	50.569565845834	0.100001108429
36	276349	50.669566952951	0.100001107117
36	276906	50.769555058812	0.099988105861
36	277463	50.869556163489	0.100001104677
36	278020	50.969557267056	0.100001103567
36	278585	51.069558369588	0.100001102532
36	279142	51.169559471169	0.100001101581
36	279699	51.26956057188	0.100001100711
36	280256	51.369561671812	0.100001099932
36	280813	51.469562771053	0.100001099241
36	281370	51.569563869691	0.100001098638
36	281927	51.669564967819	0.100001098128
36	282484	51.769566065528	0.100001097709
36	283041	51.869554162915	0.099988097387
36	283598	51.969555260072	0.100001097157
36	284163	52.069556357094	0.100001097022
36	284720	52.169557454067	0.100001096973
36	285277	52.269558551069	0.100001097002
36	285834	52.369559648166	0.100001097097
36	286391	52.469560745408	0.100001097242
36	286948	52.569561842828	0.10000109742
36	287505	52.669562940441	0.100001097613
36	288062	52.769564038235	0.100001097794
36	288619	52.869565136192	0.100001097957
36	289176	52.969566234271	0.100001098079
36	289741	53.069554332425	0.099988098154
36	290298	53.169555430594	0.100001098169
36	290855	53.269556528712	0.100001098118
36	291412	53.369557626706	0.100001097994
36	291969	53.469558724499	0.100001097793
36	292526	53.569559822011	0.100001097512
36	293083	53.669560919154	0.100001097143
36	293640	53.76956201584	0.100001096686
36	294197	53.869563111975	0.100001096135
36	294754	53.969564207469	0.100001095494
36	295319	54.069565302225	0.100001094756
36	295876	54.169566396151	0.100001093926
36	296433	54.269554489144	0.099988092993
36	296990	54.369555581111	0.100001091967
36	297547	54.469556671951	0.10000109084
36	298104	54.56955776157	0.100001089619
36	298661	54.669558849873	0.100001088303
36	299218	54.76955993678	0.100001086907
36	299775	54.869561022221	0.100001085441
36	300332	54.969562106141	0.10000108392
36	300897	55.069563188507	0.100001082366
36	301454	55.169564269299	0.100001080792
36	302011	55.269565348519	0.10000107922
36	302568	55.369566426188	0.100001077669
36	303125	55.46955450234	0.099988076152
36	303682	55.56955557702	0.10000107468
36	304239	55.669556650284	0.100001073264
36	304796	55.769557722194	0.10000107191
36	305353	55.869558792818	0.100001070624
36	305910	55.969559862232	0.100001069414
36	306475	56.069560930514	0.100001068282
36	307032	56.169561997747	0.100001067233
36	307589	56.269563064017	0.10000106627
36	308146	56.36956412941	0.100001065393
36	308703	56.469565194017	0.100001064607
36	309260	56.569566257929	0.100001063912
36	309817	56.669554321236	0.099988063307
36	310374	56.769555384036	0.1000010628
36	310931	56.869556446421	0.100001062385
36	311488	56.969557508489	0.100001062068
36	312053	57.069558570331	0.100001061842
36	312610	57.169559632037	0.100001061706
36	313167	57.269560693685	0.100001061648
36	313724	57.369561755342	0.100001061657
36	314281	57.469562817059	0.100001061717
36	314838	57.56956387887	0.100001061811
36	315395	57.669564940787	0.100001061917
36	315952	57.76956600281	0.100001062023
36	316509	57.869554064908	0.099988062098
36	317066	57.969555127053	0.100001062145
36	317631	58.06955618919	0.100001062137
36	318188	58.169557251266	0.100001062076
36	318745	58.269558313213	0.100001061947
36	319302	58.36955937496	0.100001061747
36	319859	58.469560436429	0.100001061469
36	320416	58.569561497541	0.100001061112
36	320973	58.669562558209	0.100001060668
36	321530	58.769563618345	0.100001060136
36	322087	58.86956467786	0.100001059515
36	322644	58.969565736659	0.100001058799
36	323209	59.06956679465	0.100001057991
36	323766	59.169554851739	0.099988057089
36	324323	59.269555907828	0.100001056089
36	324880	59.369556962822	0.100001054994
36	325437	59.469558016622	0.1000010538
36	325994	59.569559069132	0.10000105251
36	326551	59.66956012026	0.100001051128
36	327108	59.769561169927	0.100001049667
36	327665	59.869562218062	0.100001048135
