version 2
run SinusoidalJammingDetail-235-20170803-16:45:23-24487
attr CACCSpacing 5
attr attackAcc -30
attr attackPos 7
attr attackSpeed 150
attr attackStart 32.5
attr attacker 1
attr beaconInterval 0.1
attr configname SinusoidalJammingDetail
attr controller 3
attr datetime 20170803-16:45:23
attr experiment SinusoidalJammingDetail
attr fakeAcc "(1 == 4)"
attr fakePos "(1 == 2)"
attr fakeSpeed "(1 == 3)"
attr inifile omnetpp_235.ini
attr iterationvars "$leaderSpeed=50, $controller=3, $CACCSpacing=5, $sController=\"CONSENSUS\", $attacker=1, $attackStart=32.5, $attackSpeed=150, $attackPos=7, $attackAcc=-30, $0=5, $1=0.8, $nCars=8, $platoonSize=8, $nLanes=1, $beaconInterval=0.1, $priority=2, $packetSize=200, $ploegH=0.5, $leaderHeadway=1.2, $fakeSpeed=(1 == 3), $fakeAcc=(1 == 4), $fakePos=(1 == 2)"
attr iterationvarsf leaderSpeed=50,controller=3,CACCSpacing=5,sController=CONSENSUS,attacker=1,attackStart=32.5,attackSpeed=150,attackPos=7,attackAcc=-30,5,0.8,nCars=8,platoonSize=8,nLanes=1,beaconInterval=0.1,priority=2,packetSize=200,ploegH=0.5,leaderHeadway=1.2,fakeSpeed=(1_==_3),fakeAcc=(1_==_4),fakePos=(1_==_2)-
attr leaderHeadway 1.2
attr leaderSpeed 50
attr measurement "$leaderSpeed=50, $controller=3, $CACCSpacing=5, $sController=\"CONSENSUS\", $attacker=1, $attackStart=32.5, $attackSpeed=150, $attackPos=7, $attackAcc=-30, $0=5, $1=0.8, $nCars=8, $platoonSize=8, $nLanes=1, $beaconInterval=0.1, $priority=2, $packetSize=200, $ploegH=0.5, $leaderHeadway=1.2, $fakeSpeed=(1 == 3), $fakeAcc=(1 == 4), $fakePos=(1 == 2)"
attr nCars 8
attr nLanes 1
attr network scenario
attr packetSize 200
attr platoonSize 8
attr ploegH 0.5
attr priority 2
attr processid 24487
attr repetition 0
attr replication #0
attr resultdir results
attr runnumber 235
attr sController "\"CONSENSUS\""
attr seedset 0
param **.coreDebug false
param **.debug false
param **.headway 0.1s
param **.numberOfCars 8
param **.numberOfCarsPerPlatoon 8
param **.numberOfLanes 1
param **.numericController 3
param **.traffic.nCars 8
param **.traffic.nLanes 1
param **.traffic.platoonInsertDistance 5m
param **.traffic.platoonInsertHeadway 0.8s
param **.traffic.platoonInsertSpeed 50kmph
param **.traffic.platoonInsertTime "1 s"
param **.traffic.platoonLeaderHeadway 1.2s
param **.traffic.platoonSize 8
param **.traffic.platooningVType "\"vtypeauto\""
param **.traffic_type "\"PlatoonsTrafficManager\""
param *.**.nic.mac1609_4.bitrate 6Mbps
param *.**.nic.mac1609_4.txPower 100mW
param *.**.nic.mac1609_4.useServiceChannel false
param *.**.nic.phy80211p.analogueModels "xmldoc(\"config.xml\")"
param *.**.nic.phy80211p.decider "xmldoc(\"config.xml\")"
param *.**.nic.phy80211p.maxTXPower 100mW
param *.**.nic.phy80211p.sensitivity -94dBm
param *.**.nic.phy80211p.thermalNoise -95dBm
param *.**.nic.phy80211p.usePropagationDelay true
param *.**.nic.phy80211p.useThermalNoise true
param *.annotations.draw false
param *.connectionManager.alpha 2.0
param *.connectionManager.carrierFrequency "5.890e9 Hz"
param *.connectionManager.pMax 100mW
param *.connectionManager.sat -94dBm
param *.connectionManager.sendDirect true
param *.manager.autoShutdown true
param *.manager.commandLine "\"sumo --remote-port $port --seed $seed --configuration-file $configFile\""
param *.manager.configFile "\"./sumocfg/freeway.sumo.cfg\""
param *.manager.host "\"localhost\""
param *.manager.margin 25
param *.manager.moduleDisplayString "\"\""
param *.manager.moduleName "\"node\""
param *.manager.moduleType "\"Car\""
param *.manager.updateInterval 0.01s
param *.node[*].appl.attackStart 32.5s
param *.node[*].appl.attackerType 1
param *.node[*].appl.simulationDuration "60 s"
param *.node[*].appl_type "\"SimplePlatooningApp\""
param *.node[*].helper.nCars 8
param *.node[*].helper.nLanes 1
param *.node[*].helper.platoonSize 8
param *.node[*].helper_type "\"PositionHelper\""
param *.node[*].mobility.x 0
param *.node[*].mobility.y 0
param *.node[*].mobility.z 1.895
param *.node[*].prot.attackStart 32.5s
param *.node[*].prot.attackerType 1
param *.node[*].prot.attackingNode 3
param *.node[*].prot.beaconingInterval 0.1s
param *.node[*].prot.fakeAcc "(1 == 4)"
param *.node[*].prot.fakePos "(1 == 2)"
param *.node[*].prot.fakeSpeed "(1 == 3)"
param *.node[*].prot.maliciousAcc "-30 mpss"
param *.node[*].prot.maliciousSpeed 150kmph
param *.node[*].prot.packetSize 200
param *.node[*].prot.priority 2
param *.node[*].prot.shiftX "7 m"
param *.node[*].prot.useControllerAcceleration true
param *.node[*].protocol_type "\"SimplePlatooningBeaconing\""
param *.node[*].scenario.accHeadway 0.1s
param *.node[*].scenario.caccC1 0.5
param *.node[*].scenario.caccOmegaN "0.2 Hz"
param *.node[*].scenario.caccSpacing 5m
param *.node[*].scenario.caccXi 1
param *.node[*].scenario.controller "\"CONSENSUS\""
param *.node[*].scenario.engineTau "0.5 s"
param *.node[*].scenario.leaderHeadway 1.2s
param *.node[*].scenario.leaderOscillationFrequency "0.2 Hz"
param *.node[*].scenario.leaderSpeed 50kmph
param *.node[*].scenario.oscillationAmplitude "10 kmph"
param *.node[*].scenario.ploegH 0.5s
param *.node[*].scenario.ploegKd 0.7
param *.node[*].scenario.ploegKp 0.2
param *.node[*].scenario.startOscillating "5 s"
param *.node[*].scenario.useRealisticEngine false
param *.node[*].scenario_type "\"SinusoidalScenario\""
param *.node[*].unicast.packetLossRate 0
param *.obstacles.debug false
param *.playgroundSizeX 65000m
param *.playgroundSizeY 25000m
param *.playgroundSizeZ 50m
param *.world.use2D false
param *.world.useTorus false

vector 0  scenario.node[0].appl  distance  ETV
vector 1  scenario.node[0].appl  relativeSpeed  ETV
vector 2  scenario.node[0].appl  nodeId  ETV
vector 6  scenario.node[0].appl  acceleration  ETV
vector 7  scenario.node[0].appl  controllerAcceleration  ETV
vector 3  scenario.node[0].appl  speed  ETV
vector 4  scenario.node[0].appl  posx  ETV
vector 5  scenario.node[0].appl  posy  ETV
vector 22  scenario.node[1].appl  distance  ETV
vector 23  scenario.node[1].appl  relativeSpeed  ETV
vector 24  scenario.node[1].appl  nodeId  ETV
vector 28  scenario.node[1].appl  acceleration  ETV
vector 29  scenario.node[1].appl  controllerAcceleration  ETV
vector 25  scenario.node[1].appl  speed  ETV
vector 26  scenario.node[1].appl  posx  ETV
vector 27  scenario.node[1].appl  posy  ETV
vector 44  scenario.node[2].appl  distance  ETV
vector 45  scenario.node[2].appl  relativeSpeed  ETV
vector 46  scenario.node[2].appl  nodeId  ETV
vector 50  scenario.node[2].appl  acceleration  ETV
vector 51  scenario.node[2].appl  controllerAcceleration  ETV
vector 47  scenario.node[2].appl  speed  ETV
vector 48  scenario.node[2].appl  posx  ETV
vector 49  scenario.node[2].appl  posy  ETV
vector 66  scenario.node[3].appl  distance  ETV
vector 67  scenario.node[3].appl  relativeSpeed  ETV
vector 68  scenario.node[3].appl  nodeId  ETV
vector 72  scenario.node[3].appl  acceleration  ETV
vector 73  scenario.node[3].appl  controllerAcceleration  ETV
vector 69  scenario.node[3].appl  speed  ETV
vector 70  scenario.node[3].appl  posx  ETV
vector 71  scenario.node[3].appl  posy  ETV
vector 88  scenario.node[4].appl  distance  ETV
vector 89  scenario.node[4].appl  relativeSpeed  ETV
vector 90  scenario.node[4].appl  nodeId  ETV
vector 94  scenario.node[4].appl  acceleration  ETV
vector 95  scenario.node[4].appl  controllerAcceleration  ETV
vector 91  scenario.node[4].appl  speed  ETV
vector 92  scenario.node[4].appl  posx  ETV
vector 93  scenario.node[4].appl  posy  ETV
vector 110  scenario.node[5].appl  distance  ETV
vector 111  scenario.node[5].appl  relativeSpeed  ETV
vector 112  scenario.node[5].appl  nodeId  ETV
vector 116  scenario.node[5].appl  acceleration  ETV
vector 117  scenario.node[5].appl  controllerAcceleration  ETV
vector 113  scenario.node[5].appl  speed  ETV
vector 114  scenario.node[5].appl  posx  ETV
vector 115  scenario.node[5].appl  posy  ETV
vector 132  scenario.node[6].appl  distance  ETV
vector 133  scenario.node[6].appl  relativeSpeed  ETV
vector 134  scenario.node[6].appl  nodeId  ETV
vector 138  scenario.node[6].appl  acceleration  ETV
vector 139  scenario.node[6].appl  controllerAcceleration  ETV
vector 135  scenario.node[6].appl  speed  ETV
vector 136  scenario.node[6].appl  posx  ETV
vector 137  scenario.node[6].appl  posy  ETV
vector 154  scenario.node[7].appl  distance  ETV
vector 155  scenario.node[7].appl  relativeSpeed  ETV
vector 156  scenario.node[7].appl  nodeId  ETV
vector 160  scenario.node[7].appl  acceleration  ETV
vector 161  scenario.node[7].appl  controllerAcceleration  ETV
vector 157  scenario.node[7].appl  speed  ETV
vector 158  scenario.node[7].appl  posx  ETV
vector 159  scenario.node[7].appl  posy  ETV
vector 80  scenario.node[3].prot  frontDelay  ETV
vector 78  scenario.node[3].prot  frontDelayId  ETV
vector 58  scenario.node[2].prot  frontDelay  ETV
vector 56  scenario.node[2].prot  frontDelayId  ETV
vector 168  scenario.node[7].prot  frontDelay  ETV
vector 166  scenario.node[7].prot  frontDelayId  ETV
vector 35  scenario.node[1].prot  leaderDelay  ETV
vector 33  scenario.node[1].prot  leaderDelayId  ETV
vector 36  scenario.node[1].prot  frontDelay  ETV
vector 34  scenario.node[1].prot  frontDelayId  ETV
vector 57  scenario.node[2].prot  leaderDelay  ETV
vector 55  scenario.node[2].prot  leaderDelayId  ETV
vector 79  scenario.node[3].prot  leaderDelay  ETV
vector 77  scenario.node[3].prot  leaderDelayId  ETV
vector 101  scenario.node[4].prot  leaderDelay  ETV
vector 99  scenario.node[4].prot  leaderDelayId  ETV
vector 123  scenario.node[5].prot  leaderDelay  ETV
vector 121  scenario.node[5].prot  leaderDelayId  ETV
vector 145  scenario.node[6].prot  leaderDelay  ETV
vector 143  scenario.node[6].prot  leaderDelayId  ETV
vector 167  scenario.node[7].prot  leaderDelay  ETV
vector 165  scenario.node[7].prot  leaderDelayId  ETV
vector 124  scenario.node[5].prot  frontDelay  ETV
vector 122  scenario.node[5].prot  frontDelayId  ETV
vector 102  scenario.node[4].prot  frontDelay  ETV
vector 100  scenario.node[4].prot  frontDelayId  ETV
vector 146  scenario.node[6].prot  frontDelay  ETV
vector 144  scenario.node[6].prot  frontDelayId  ETV
vector 8  scenario.node[0].prot  nodeId  ETV
vector 9  scenario.node[0].prot  busyTime  ETV
vector 10  scenario.node[0].prot  collisions  ETV
vector 30  scenario.node[1].prot  nodeId  ETV
vector 31  scenario.node[1].prot  busyTime  ETV
vector 32  scenario.node[1].prot  collisions  ETV
vector 52  scenario.node[2].prot  nodeId  ETV
vector 53  scenario.node[2].prot  busyTime  ETV
vector 54  scenario.node[2].prot  collisions  ETV
vector 74  scenario.node[3].prot  nodeId  ETV
vector 75  scenario.node[3].prot  busyTime  ETV
vector 76  scenario.node[3].prot  collisions  ETV
vector 96  scenario.node[4].prot  nodeId  ETV
vector 97  scenario.node[4].prot  busyTime  ETV
vector 98  scenario.node[4].prot  collisions  ETV
vector 118  scenario.node[5].prot  nodeId  ETV
vector 119  scenario.node[5].prot  busyTime  ETV
vector 120  scenario.node[5].prot  collisions  ETV
vector 140  scenario.node[6].prot  nodeId  ETV
vector 141  scenario.node[6].prot  busyTime  ETV
vector 142  scenario.node[6].prot  collisions  ETV
vector 162  scenario.node[7].prot  nodeId  ETV
vector 163  scenario.node[7].prot  busyTime  ETV
vector 164  scenario.node[7].prot  collisions  ETV
7	232	1.11	-4.215365603244e-07
7	788	1.21	-4.123519392607e-07
7	1344	1.31	-3.9742146640265e-07
7	1900	1.41	-3.7804518804307e-07
7	2456	1.51	-3.5536931619617e-07
7	3012	1.61	-3.3039333047213e-07
7	3568	1.71	-3.039784495229e-07
7	4124	1.81	-2.7685694803381e-07
7	4680	1.91	-2.4964219491608e-07
7	5244	2.01	-2.2283905920517e-07
7	5800	2.11	-1.9685434082817e-07
7	6356	2.21	-1.7200705926257e-07
7	6912	2.31	-1.4853853436136e-07
7	7468	2.41	-1.2662199289082e-07
7	8024	2.51	-1.0637172032091e-07
7	8580	2.61	-8.7851576680009e-08
7	9136	2.71	-7.1082913777332e-08
7	9692	2.81	-5.6051822738823e-08
7	10248	2.91	-4.2715759818179e-08
7	10812	3.01	-3.1009408374416e-08
7	11368	3.11	-2.0849929782685e-08
7	11924	3.21	-1.2141658345399e-08
7	12480	3.31	-4.7800785551999e-09
7	13036	3.41	1.3447181146375e-09
7	13592	3.51	6.3450702469936e-09
7	14148	3.61	1.0333288003039e-08
7	14704	3.71	1.3419677813431e-08
7	15260	3.81	1.5710899248234e-08
7	15816	3.91	1.7308703803565e-08
7	16380	4.01	1.830899876154e-08
7	16936	4.11	1.8801173951033e-08
7	17492	4.21	1.8867702067382e-08
7	18048	4.31	1.8583865113442e-08
7	18604	4.41	1.8017717096086e-08
7	19160	4.51	1.723012310606e-08
7	19716	4.61	1.6274986691656e-08
7	20272	4.71	1.5199535852162e-08
7	20828	4.81	1.4044672980162e-08
7	21384	4.91	1.2845363883685e-08
7	21949	5.01	1.1631094309905e-08
7	22506	5.11	0.3481478814383
7	23063	5.21	0.68726936236521
7	23620	5.31	1.0064706229906
7	24177	5.41	1.2963311628453
7	24734	5.51	1.5
7	25291	5.61	1.5
7	25848	5.71	1.5
7	26405	5.81	1.5
7	26962	5.91	1.5
7	27527	6.01	1.5
7	28084	6.11	1.5
7	28641	6.21	1.5
7	29198	6.31	1.5
7	29755	6.41	1.5
7	30312	6.51	1.4919234130517
7	30869	6.61	1.2264993275909
7	31426	6.71	0.92305383931647
7	31983	6.81	0.58908101929403
7	32540	6.91	0.23235621605629
7	33105	7.01	-0.13919559804423
7	33662	7.11	-0.51762846559318
7	34219	7.21	-0.89509993922417
7	34776	7.31	-1.2639902882471
7	35333	7.41	-1.5
7	35890	7.51	-1.5
7	36447	7.61	-1.5
7	37004	7.71	-1.5
7	37561	7.81	-1.5
7	38118	7.91	-1.5
7	38683	8.01	-1.5
7	39240	8.11	-1.5
7	39797	8.21	-1.5
7	40354	8.31	-1.5
7	40911	8.41	-1.5
7	41468	8.51	-1.5
7	42025	8.61	-1.5
7	42582	8.71	-1.5
7	43139	8.81	-1.5
7	43696	8.91	-1.5
7	44261	9.01	-1.5
7	44818	9.11	-1.5
7	45375	9.21	-1.5
7	45932	9.31	-1.5
7	46489	9.41	-1.5
7	47046	9.51	-1.1784535904988
7	47603	9.61	-0.73985166426131
7	48160	9.71	-0.29046662065306
7	48717	9.81	0.15868205664034
7	49274	9.91	0.59737147685681
7	49839	10.01	1.0162504341391
7	50396	10.11	1.4069035498462
7	50953	10.21	1.5
7	51510	10.31	1.5
7	52067	10.41	1.5
7	52624	10.51	1.5
7	53181	10.61	1.5
7	53738	10.71	1.5
7	54295	10.81	1.5
7	54852	10.91	1.5
7	55417	11.01	1.5
7	55974	11.11	1.5
7	56531	11.21	1.5
7	57088	11.31	1.5
7	57645	11.41	1.5
7	58202	11.51	1.5
7	58759	11.61	1.5
7	59316	11.71	1.5
7	59873	11.81	1.5
7	60430	11.91	1.1420569523224
7	60995	12.01	0.73271074172757
7	61552	12.11	0.30763491701868
7	62109	12.21	-0.12290183401692
7	62666	12.31	-0.54917422866109
7	63223	12.41	-0.96209331717302
7	63780	12.51	-1.3532900275371
7	64337	12.61	-1.5
7	64894	12.71	-1.5
7	65451	12.81	-1.5
7	66008	12.91	-1.5
7	66573	13.01	-1.5
7	67130	13.11	-1.5
7	67687	13.21	-1.5
7	68244	13.31	-1.5
7	68801	13.41	-1.5
7	69358	13.51	-1.5
7	69915	13.61	-1.5
7	70472	13.71	-1.5
7	71029	13.81	-1.5
7	71586	13.91	-1.5
7	72151	14.01	-1.5
7	72708	14.11	-1.5
7	73265	14.21	-1.5
7	73822	14.31	-1.5
7	74379	14.41	-1.3008305793183
7	74936	14.51	-0.88835736021285
7	75493	14.61	-0.45792464374985
7	76050	14.71	-0.020297800482021
7	76607	14.81	0.4143593475729
7	77164	14.91	0.8365748748462
7	77729	15.01	1.2376491838941
7	78286	15.11	1.5
7	78843	15.21	1.5
7	79400	15.31	1.5
7	79957	15.41	1.5
7	80514	15.51	1.5
7	81071	15.61	1.5
7	81628	15.71	1.5
7	82185	15.81	1.5
7	82742	15.91	1.5
7	83307	16.01	1.5
7	83864	16.11	1.5
7	84421	16.21	1.5
7	84978	16.31	1.5
7	85535	16.41	1.5
7	86092	16.51	1.5
7	86649	16.61	1.5
7	87206	16.71	1.5
7	87763	16.81	1.5
7	88320	16.91	1.2451238477388
7	88885	17.01	0.83347870135435
7	89442	17.11	0.40470958876969
7	89999	17.21	-0.030598062218257
7	90556	17.31	-0.46243980386594
7	91113	17.41	-0.8814833530456
7	91670	17.51	-1.2791500631716
7	92227	17.61	-1.5
7	92784	17.71	-1.5
7	93341	17.81	-1.5
7	93898	17.91	-1.5
7	94463	18.01	-1.5
7	95020	18.11	-1.5
7	95577	18.21	-1.5
7	96134	18.31	-1.5
7	96691	18.41	-1.5
7	97248	18.51	-1.5
7	97805	18.61	-1.5
7	98362	18.71	-1.5
7	98919	18.81	-1.5
7	99476	18.91	-1.5
7	100041	19.01	-1.5
7	100598	19.11	-1.5
7	101155	19.21	-1.5
7	101712	19.31	-1.5
7	102269	19.41	-1.2657245815134
7	102826	19.51	-0.85377693481579
7	103383	19.61	-0.42439560038158
7	103940	19.71	0.011767371267542
7	104497	19.81	0.44464851836336
7	105054	19.91	0.86486384400473
7	105619	20.01	1.2637899041122
7	106176	20.11	1.5
7	106733	20.21	1.5
7	107290	20.31	1.5
7	107847	20.41	1.5
7	108404	20.51	1.5
7	108961	20.61	1.5
7	109518	20.71	1.5
7	110075	20.81	1.5
7	110632	20.91	1.5
7	111197	21.01	1.5
7	111754	21.11	1.5
7	112311	21.21	1.5
7	112868	21.31	1.5
7	113425	21.41	1.5
7	113982	21.51	1.5
7	114539	21.61	1.5
7	115096	21.71	1.5
7	115653	21.81	1.5
7	116210	21.91	1.2580915517758
7	116775	22.01	0.84625491634779
7	117332	22.11	0.41709956367461
7	117889	22.21	-0.018747163543122
7	118446	22.31	-0.45124369149455
7	119003	22.41	-0.8710252053863
7	119560	22.51	-1.26948487946
7	120117	22.61	-1.5
7	120674	22.71	-1.5
7	121231	22.81	-1.5
7	121788	22.91	-1.5
7	122353	23.01	-1.5
7	122910	23.11	-1.5
7	123467	23.21	-1.5
7	124024	23.31	-1.5
7	124581	23.41	-1.5
7	125138	23.51	-1.5
7	125695	23.61	-1.5
7	126252	23.71	-1.5
7	126809	23.81	-1.5
7	127366	23.91	-1.5
7	127931	24.01	-1.5
7	128488	24.11	-1.5
7	129045	24.21	-1.5
7	129602	24.31	-1.5
7	130159	24.41	-1.260923965112
7	130716	24.51	-0.84904615684565
7	131273	24.61	-0.41980696481147
7	131830	24.71	0.01615709944571
7	132387	24.81	0.44879633965971
7	132944	24.91	0.86873882266827
7	133509	25.01	1.2673715557189
7	134066	25.11	1.5
7	134623	25.21	1.5
7	135180	25.31	1.5
7	135737	25.41	1.5
7	136294	25.51	1.5
7	136851	25.61	1.5
7	137408	25.71	1.5
7	137965	25.81	1.5
7	138522	25.91	1.5
7	139087	26.01	1.5
7	139644	26.11	1.5
7	140201	26.21	1.5
7	140758	26.31	1.5
7	141315	26.41	1.5
7	141872	26.51	1.5
7	142429	26.61	1.5
7	142986	26.71	1.5
7	143543	26.81	1.5
7	144100	26.91	1.259872851863
7	144665	27.01	0.84801032251393
7	145222	27.11	0.41880224309103
7	145779	27.21	-0.017118277442348
7	146336	27.31	-0.44970455708455
7	146893	27.41	-0.86958730431938
7	147450	27.51	-1.2681558149833
7	148007	27.61	-1.5
7	148564	27.71	-1.5
7	149121	27.81	-1.5
7	149678	27.91	-1.5
7	150243	28.01	-1.5
7	150800	28.11	-1.5
7	151357	28.21	-1.5
7	151914	28.31	-1.5
7	152471	28.41	-1.5
7	153028	28.51	-1.5
7	153585	28.61	-1.5
7	154142	28.71	-1.5
7	154699	28.81	-1.5
7	155256	28.91	-1.5
7	155821	29.01	-1.5
7	156378	29.11	-1.5
7	156935	29.21	-1.5
7	157492	29.31	-1.5
7	158049	29.41	-1.2602629232527
7	158606	29.51	-0.84839472385746
7	159163	29.61	-0.41917509845393
7	159720	29.71	0.016761581285863
7	160277	29.81	0.44936751475712
7	160834	29.91	0.86927243012053
7	161399	30.01	1.2678647739099
7	161956	30.11	1.5
7	162513	30.21	1.5
7	163070	30.31	1.5
7	163627	30.41	1.5
7	164184	30.51	1.5
7	164741	30.61	1.5
7	165298	30.71	1.5
7	165855	30.81	1.5
7	166412	30.91	1.5
7	166977	31.01	1.5
7	167534	31.11	1.5
7	168091	31.21	1.5
7	168648	31.31	1.5
7	169205	31.41	1.5
7	169762	31.51	1.5
7	170319	31.61	1.5
7	170876	31.71	1.5
7	171433	31.81	1.5
7	171990	31.91	1.2601181665191
7	172555	32.01	0.84825207129591
7	173112	32.11	0.4190367306424
7	173669	32.21	-0.01689395236456
7	174226	32.31	-0.44949259223739
7	174783	32.41	-0.86938928093775
7	175340	32.51	-1.2679727801784
7	175897	32.61	-1.5
7	176454	32.71	-1.5
7	177011	32.81	-1.5
7	177568	32.91	-1.5
7	178133	33.01	-1.5
7	178690	33.11	-1.5
7	179247	33.21	-1.5
7	179804	33.31	-1.5
7	180361	33.41	-1.5
7	180918	33.51	-1.5
7	181475	33.61	-1.5
7	182032	33.71	-1.5
7	182589	33.81	-1.5
7	183146	33.91	-1.5
7	183711	34.01	-1.5
7	184268	34.11	-1.5
7	184825	34.21	-1.5
7	185382	34.31	-1.5
7	185939	34.41	-1.2601718862043
7	186496	34.51	-0.8483050101162
7	187053	34.61	-0.4190880793783
7	187610	34.71	0.016844829035321
7	188167	34.81	0.44944617558577
7	188724	34.91	0.86934591722702
7	189289	35.01	1.2679326987079
7	189846	35.11	1.5
7	190403	35.21	1.5
7	190960	35.31	1.5
7	191517	35.41	1.5
7	192074	35.51	1.5
7	192631	35.61	1.5
7	193188	35.71	1.5
7	193745	35.81	1.5
7	194302	35.91	1.5
7	194867	36.01	1.5
7	195424	36.11	1.5
7	195981	36.21	1.5
7	196538	36.31	1.5
7	197095	36.41	1.5
7	197652	36.51	1.5
7	198209	36.61	1.5
7	198766	36.71	1.5
7	199323	36.81	1.5
7	199880	36.91	1.260151950659
7	200445	37.01	0.8482853643524
7	201002	37.11	0.41906902369986
7	201559	37.21	-0.016863058858293
7	202116	37.31	-0.44946340095208
7	202673	37.41	-0.86936200963733
7	203230	37.51	-1.2679475730685
7	203787	37.61	-1.5
7	204344	37.71	-1.5
7	204901	37.81	-1.5
7	205458	37.91	-1.5
7	206023	38.01	-1.5
7	206580	38.11	-1.5
7	207137	38.21	-1.5
7	207694	38.31	-1.5
7	208251	38.41	-1.5
7	208808	38.51	-1.5
7	209365	38.61	-1.5
7	209922	38.71	-1.5
7	210479	38.81	-1.5
7	211036	38.91	-1.5
7	211601	39.01	-1.5
7	212158	39.11	-1.5
7	212715	39.21	-1.5
7	213272	39.31	-1.5
7	213829	39.41	-1.2601593488024
7	214386	39.51	-0.84829265495693
7	214943	39.61	-0.41907609532189
7	215500	39.71	0.016856293713799
7	216057	39.81	0.44945700856461
7	216614	39.91	0.86935603769337
7	217179	40.01	1.2679420531466
7	217736	40.11	1.5
7	218293	40.21	1.5
7	218850	40.31	1.5
7	219407	40.41	1.5
7	219964	40.51	1.5
7	220521	40.61	1.5
7	221078	40.71	1.5
7	221635	40.81	1.5
7	222192	40.91	1.5
7	222757	41.01	1.5
7	223314	41.11	1.5
7	223871	41.21	1.5
7	224428	41.31	1.5
7	224985	41.41	1.5
7	225542	41.51	1.5
7	226099	41.61	1.5
7	226656	41.71	1.5
7	227213	41.81	1.5
7	227770	41.91	1.2601566033274
7	228335	42.01	0.84828994938986
7	228892	42.11	0.41907347101992
7	229449	42.21	-0.016858804280965
7	230006	42.31	-0.44945938080047
7	230563	42.41	-0.86935825390131
7	231120	42.51	-1.2679441016077
7	231677	42.61	-1.5
7	232234	42.71	-1.5
7	232791	42.81	-1.5
7	233348	42.91	-1.5
7	233913	43.01	-1.5
7	234470	43.11	-1.5
7	235027	43.21	-1.5
7	235584	43.31	-1.5
7	236141	43.41	-1.5
7	236698	43.51	-1.5
7	237255	43.61	-1.5
7	237812	43.71	-1.5
7	238369	43.81	-1.5
7	238926	43.91	-1.5
7	239491	44.01	-1.5
7	240048	44.11	-1.5
7	240605	44.21	-1.5
7	241162	44.31	-1.5
7	241719	44.41	-1.2601576221827
7	242276	44.51	-0.84829095343517
7	242833	44.61	-0.41907444490747
7	243390	44.71	0.016857872600761
7	243947	44.81	0.44945850045547
7	244504	44.91	0.86935743145876
7	245069	45.01	1.2679433414165
7	245626	45.11	1.5
7	246183	45.21	1.5
7	246740	45.31	1.5
7	247297	45.41	1.5
7	247854	45.51	1.5
7	248411	45.61	1.5
7	248968	45.71	1.5
7	249525	45.81	1.5
7	250082	45.91	1.5
7	250647	46.01	1.5
7	251204	46.11	1.5
7	251761	46.21	1.5
7	252318	46.31	1.5
7	252875	46.41	1.5
7	253432	46.51	1.5
7	253989	46.61	1.5
7	254546	46.71	1.5
7	255103	46.81	1.5
7	255660	46.91	1.2601572440819
7	256225	47.01	0.84829058083041
7	256782	47.11	0.41907408349436
7	257339	47.21	-0.016858218350617
7	257896	47.31	-0.44945882715468
7	258453	47.41	-0.86935773667018
7	259010	47.51	-1.2679436235263
7	259567	47.61	-1.5
7	260124	47.71	-1.5
7	260681	47.81	-1.5
7	261238	47.91	-1.5
7	261803	48.01	-1.5
7	262360	48.11	-1.5
7	262917	48.21	-1.5
7	263474	48.31	-1.5
7	264031	48.41	-1.5
7	264588	48.51	-1.5
7	265145	48.61	-1.5
7	265702	48.71	-1.5
7	266259	48.81	-1.5
7	266816	48.91	-1.5
7	267381	49.01	-1.5
7	267938	49.11	-1.5
7	268495	49.21	-1.5
7	269052	49.31	-1.5
7	269609	49.41	-1.2601573843972
7	270166	49.51	-0.84829071910619
7	270723	49.61	-0.41907421761691
7	271280	49.71	0.016858090040726
7	271837	49.81	0.44945870591456
7	272394	49.91	0.86935762340428
7	272959	50.01	1.2679435188335
7	273516	50.11	1.5
7	274073	50.21	1.5
7	274630	50.31	1.5
7	275187	50.41	1.5
7	275744	50.51	1.5
7	276301	50.61	1.5
7	276858	50.71	1.5
7	277415	50.81	1.5
7	277972	50.91	1.5
7	278537	51.01	1.5
7	279094	51.11	1.5
7	279651	51.21	1.5
7	280208	51.31	1.5
7	280765	51.41	1.5
7	281322	51.51	1.5
7	281879	51.61	1.5
7	282436	51.71	1.5
7	282993	51.81	1.5
7	283550	51.91	1.2601573323245
7	284115	52.01	0.84829066779032
7	284672	52.11	0.41907416784227
7	285229	52.21	-0.016858137658296
7	285786	52.31	-0.44945875090849
7	286343	52.41	-0.8693576654389
7	286900	52.51	-1.2679435576866
7	287457	52.61	-1.5
7	288014	52.71	-1.5
7	288571	52.81	-1.5
7	289128	52.91	-1.5
7	289693	53.01	-1.5
7	290250	53.11	-1.5
7	290807	53.21	-1.5
7	291364	53.31	-1.5
7	291921	53.41	-1.5
7	292478	53.51	-1.5
7	293035	53.61	-1.5
7	293592	53.71	-1.5
7	294149	53.81	-1.5
7	294706	53.91	-1.5
7	295271	54.01	-1.5
7	295828	54.11	-1.5
7	296385	54.21	-1.5
7	296942	54.31	-1.5
7	297499	54.41	-1.2601573516494
7	298056	54.51	-0.8482906868344
7	298613	54.61	-0.41907418631442
7	299170	54.71	0.01685811998667
6	232	1.11	-6.1957727837125e-08
6	788	1.21	-1.257166815094e-07
6	1344	1.31	-1.7576642363792e-07
6	1900	1.41	-2.1367210223389e-07
6	2456	1.51	-2.40935627005e-07
6	3012	1.61	-2.5897985977963e-07
6	3568	1.71	-2.6913706818732e-07
6	4124	1.81	-2.7264253077419e-07
6	4680	1.91	-2.70628319754e-07
6	5244	2.01	-2.6412187992264e-07
6	5800	2.11	-2.540470944723e-07
6	6356	2.21	-2.4122570607688e-07
6	6912	2.31	-2.2638122487706e-07
6	7468	2.41	-2.1014301410105e-07
6	8024	2.51	-1.9305321785623e-07
6	8580	2.61	-1.7557066911422e-07
6	9136	2.71	-1.5808012676644e-07
6	9692	2.81	-1.408965388805e-07
6	10248	2.91	-1.2427268103465e-07
6	10812	3.01	-1.0840643938081e-07
6	11368	3.11	-9.3446494986438e-08
6	11924	3.21	-7.9497652905047e-08
6	12480	3.31	-6.662919105338e-08
6	13036	3.41	-5.487734711096e-08
6	13592	3.51	-4.4252601583139e-08
6	14148	3.61	-3.474287524341e-08
6	14704	3.71	-2.631832529687e-08
6	15260	3.81	-1.8935253365271e-08
6	15816	3.91	-1.2538947657958e-08
6	16380	4.01	-7.0667027785021e-09
6	16936	4.11	-2.4508395313205e-09
6	17492	4.21	1.3796963571622e-09
6	18048	4.31	4.4970249746257e-09
6	18604	4.41	6.9737993158014e-09
6	19160	4.51	8.8805407472137e-09
6	19716	4.61	1.0285283735811e-08
6	20272	4.71	1.1253575848968e-08
6	20828	4.81	1.1845813219225e-08
6	21384	4.91	1.2119549808176e-08
6	21949	5.01	1.2126655235534e-08
6	22506	5.11	0.0068264407582674
6	23063	5.21	0.074594825204244
6	23620	5.31	0.19005133580965
6	24177	5.41	0.34050271604578
6	24734	5.51	0.51301637992296
6	25291	5.61	0.69025457770344
6	25848	5.71	0.83572671948744
6	26405	5.81	0.95506454367928
6	26962	5.91	1.0529631248657
6	27527	6.01	1.1332740595019
6	28084	6.11	1.1991569981921
6	28641	6.21	1.2532039549377
6	29198	6.31	1.2975412840174
6	29755	6.41	1.333913336549
6	30312	6.51	1.3635927235564
6	30869	6.61	1.3702053601566
6	31426	6.71	1.3272611912161
6	31983	6.81	1.2373810907324
6	32540	6.91	1.10404337413
6	33105	7.01	0.93147091874766
6	33662	7.11	0.72451590435048
6	34219	7.21	0.4885431822391
6	34776	7.31	0.22931329511646
6	35333	7.41	-0.044839399439311
6	35890	7.51	-0.30626147528494
6	36447	7.61	-0.52071863075458
6	37004	7.71	-0.69664819363986
6	37561	7.81	-0.84097171145086
6	38118	7.91	-0.95936726391912
6	38683	8.01	-1.0564928540992
6	39240	8.11	-1.1361696668779
6	39797	8.21	-1.2015324047802
6	40354	8.31	-1.2551526156937
6	40911	8.41	-1.2991398645553
6	41468	8.51	-1.3352247293753
6	42025	8.61	-1.3648268868815
6	42582	8.71	-1.3891109664646
6	43139	8.81	-1.4090323698644
6	43696	8.91	-1.4253748592747
6	44261	9.01	-1.4387813926779
6	44818	9.11	-1.4497794195627
6	45375	9.21	-1.4588016322197
6	45932	9.31	-1.4662029890339
6	46489	9.41	-1.472274679513
6	47046	9.51	-1.4696249147034
6	47603	9.61	-1.3967850639437
6	48160	9.71	-1.2587757641633
6	48717	9.81	-1.0660952218261
6	49274	9.91	-0.82923335021992
6	49839	10.01	-0.55852907837295
6	50396	10.11	-0.26404116072971
6	50953	10.21	0.039432698699926
6	51510	10.31	0.30182609752512
6	52067	10.41	0.51708007614977
6	52624	10.51	0.69366331155596
6	53181	10.61	0.83852306850822
6	53738	10.71	0.95735852384404
6	54295	10.81	1.0548449875937
6	54852	10.91	1.1348178423914
6	55417	11.01	1.2004234378608
6	55974	11.11	1.2542428765666
6	56531	11.21	1.2983935616091
6	57088	11.31	1.3346125010223
6	57645	11.41	1.364324646393
6	58202	11.51	1.3886989543336
6	58759	11.61	1.4086943764131
6	59316	11.71	1.4250975869215
6	59873	11.81	1.4385539327746
6	60430	11.91	1.4345627372796
6	60995	12.01	1.362344918871
6	61552	12.11	1.2299875654412
6	62109	12.21	1.0461448397713
6	62666	12.31	0.81967864248274
6	63223	12.41	0.55952045903922
6	63780	12.51	0.27454262948492
6	64337	12.61	-0.022341644884349
6	64894	12.71	-0.2878054805846
6	65451	12.81	-0.50557828687943
6	66008	12.91	-0.68422783828268
6	66573	13.01	-0.83078269404986
6	67130	13.11	-0.95100872081701
6	67687	13.21	-1.0496359374757
6	68244	13.31	-1.1305446069832
6	68801	13.41	-1.1969178964591
6	69358	13.51	-1.2513671116379
6	69915	13.61	-1.2960344327389
6	70472	13.71	-1.3326771936644
6	71029	13.81	-1.3627370202924
6	71586	13.91	-1.3873965479609
6	72151	14.01	-1.4076259495598
6	72708	14.11	-1.4242211047687
6	73265	14.21	-1.4378349121303
6	73822	14.31	-1.4490029758544
6	74379	14.41	-1.454259395185
6	74936	14.51	-1.4067454390036
6	75493	14.61	-1.2938574955303
6	76050	14.71	-1.124840905225
6	76607	14.81	-0.90912582142568
6	77164	14.91	-0.65618298375991
6	77729	15.01	-0.37539052553566
6	78286	15.11	-0.078063005087259
6	78843	15.21	0.20543869668082
6	79400	15.31	0.43800883573812
6	79957	15.41	0.62879735391554
6	80514	15.51	0.7853103904381
6	81071	15.61	0.91370559385755
6	81628	15.71	1.0190343806947
6	82185	15.81	1.1054406719046
6	82742	15.91	1.1763239259972
6	83307	16.01	1.2344728829815
6	83864	16.11	1.2821752809831
6	84421	16.21	1.3213078620836
6	84978	16.31	1.353410208459
6	85535	16.41	1.3797453137304
6	86092	16.51	1.4013492725669
6	86649	16.61	1.4190720434685
6	87206	16.71	1.433610888447
6	87763	16.81	1.4455378052071
6	88320	16.91	1.4502949065323
6	88885	17.01	1.3935559567521
6	89442	17.11	1.2733368701442
6	89999	17.21	1.0986742440538
6	90556	17.31	0.87879676591474
6	91113	17.41	0.62298329276036
6	91670	17.51	0.34043137853494
6	92227	17.61	0.043031849081565
6	92784	17.71	-0.23417644595263
6	93341	17.81	-0.4615837994951
6	93898	17.91	-0.648137035353
6	94463	18.01	-0.801175665225
6	95020	18.11	-0.92672064505575
6	95577	18.21	-1.0297112558181
6	96134	18.31	-1.1141994282598
6	96691	18.41	-1.1835091568821
6	97248	18.51	-1.2403672749222
6	97805	18.61	-1.2870107353907
6	98362	18.71	-1.325274618886
6	98919	18.81	-1.3566643306579
6	99476	18.91	-1.3824148273438
6	100041	19.01	-1.4035392035211
6	100598	19.11	-1.420868549604
6	101155	19.21	-1.4350846492013
6	101712	19.31	-1.4467468023362
6	102269	19.41	-1.451720194177
6	102826	19.51	-1.3984004323888
6	103383	19.61	-1.2808993810095
6	103940	19.71	-1.1083308503775
6	104497	19.81	-0.88999806036849
6	105054	19.91	-0.63525086466907
6	105619	20.01	-0.35335363991358
6	106176	20.11	-0.055983891307321
6	106733	20.21	0.22355126013291
6	107290	20.31	0.4528674463721
6	107847	20.41	0.6409865898874
6	108404	20.51	0.79530980944416
6	108961	20.61	0.92190860023873
6	109518	20.71	1.0257637030335
6	110075	20.81	1.1109610600444
6	110632	20.91	1.1808525670222
6	111197	21.01	1.2381879459472
6	111754	21.11	1.2852229265711
6	112311	21.21	1.3238079929604
6	112868	21.31	1.3554611865732
6	113425	21.41	1.3814278301394
6	113982	21.51	1.4027295220425
6	114539	21.61	1.4202043287794
6	115096	21.71	1.4345397567766
6	115653	21.81	1.4462998007621
6	116210	21.91	1.4512038299459
6	116775	22.01	1.3966149622043
6	117332	22.11	1.2781048258539
6	117889	22.21	1.1047586168255
6	118446	22.31	0.88585193073953
6	119003	22.41	0.63070830476128
6	119560	22.51	0.34856734381012
6	120117	22.61	0.0511856543703
6	120674	22.71	-0.22748748564663
6	121231	22.81	-0.45609652228009
6	121788	22.91	-0.6436355568189
6	122353	23.01	-0.79748288496297
6	122910	23.11	-0.92369127904615
6	123467	23.21	-1.0272261205623
6	124024	23.31	-1.1121607517778
6	124581	23.41	-1.1818367320961
6	125138	23.51	-1.2389953040925
6	125695	23.61	-1.2858852414526
6	126252	23.71	-1.3243513218477
6	126809	23.81	-1.3559069055024
6	127366	23.91	-1.3817934749051
6	127931	24.01	-1.4030294781042
6	128488	24.11	-1.4204503972245
6	129045	24.21	-1.4347416186069
6	129602	24.31	-1.4464653977715
6	130159	24.41	-1.4513952146874
6	130716	24.51	-1.3972773206753
6	131273	24.61	-1.2791416668554
6	131830	24.71	-1.1060840673016
6	132387	24.81	-0.88739036841616
6	132944	24.91	-0.63239387292562
6	133509	25.01	-0.35034337810913
6	134066	25.11	-0.052966136909482
6	134623	25.21	0.22602686982296
6	135180	25.31	0.45489830857282
6	135737	25.41	0.64265260424126
6	136294	25.51	0.79667652148707
6	136851	25.61	0.92302978013983
6	137408	25.71	1.026683461059
6	137965	25.81	1.1117155819768
6	138522	25.91	1.1814715378065
6	139087	26.01	1.2386957175778
6	139644	26.11	1.2856394761648
6	140201	26.21	1.3241497087115
6	140758	26.31	1.3557415125092
6	141315	26.41	1.3816577950445
6	141872	26.51	1.4029181733612
6	142429	26.61	1.4203590885678
6	142986	26.71	1.4346667137062
6	143543	26.81	1.4464039496636
6	144100	26.91	1.4513241957731
6	144665	27.01	1.3970315218257
6	145222	27.11	1.2787568961965
6	145779	27.21	1.105592192547
6	146336	27.31	0.88681945319422
6	146893	27.41	0.63176835684544
6	147450	27.51	0.34968428947462
6	148007	27.61	0.052305397195518
6	148564	27.71	-0.22656890652382
6	149121	27.81	-0.45534296745871
6	149678	27.91	-0.64301737940227
6	150243	28.01	-0.79697576416979
6	150800	28.11	-0.92327526336593
6	151357	28.21	-1.0268848428064
6	151914	28.31	-1.1118807851512
6	152471	28.41	-1.1816070619497
6	153028	28.51	-1.2388068945784
6	153585	28.61	-1.2857306800282
6	154142	28.71	-1.3242245276457
6	154699	28.81	-1.3558028900942
6	155256	28.91	-1.3817081460418
6	155821	29.01	-1.4029594787162
6	156378	29.11	-1.420392973346
6	156935	29.21	-1.4346945110265
6	157492	29.31	-1.446426753148
6	158049	29.41	-1.451350551031
6	158606	29.51	-1.3971227384756
6	159163	29.61	-1.2788996857301
6	159720	29.71	-1.1057747287552
6	160277	29.81	-0.8870313215759
6	160834	29.91	-0.6320004877848
6	161399	30.01	-0.34992887930123
6	161956	30.11	-0.052550599748891
6	162513	30.21	0.22636775502605
6	163070	30.31	0.45517795316936
6	163627	30.41	0.64288201021068
6	164184	30.51	0.79686471428388
6	164741	30.61	0.92318416378063
6	165298	30.71	1.0268101094166
6	165855	30.81	1.1118194777421
6	166412	30.91	1.1815567685211
6	166977	31.01	1.2387656364497
6	167534	31.11	1.2856968339927
6	168091	31.21	1.3241967621083
6	168648	31.31	1.3557801126831
6	169205	31.41	1.3816894606315
6	169762	31.51	1.4029441501719
6	170319	31.61	1.4203803986005
6	170876	31.71	1.4346841953552
6	171433	31.81	1.4464182907044
6	171990	31.91	1.4513407705126
6	172555	32.01	1.397088887688
6	173112	32.11	1.278846696081
6	173669	32.21	1.1057069889883
6	174226	32.31	0.88695269654568
6	174783	32.41	0.63191434325471
6	175340	32.51	0.34983811123848
6	175897	32.61	0.052459604300914
6	176454	32.71	-0.22644240298693
6	177011	32.81	-0.4552391904971
6	177568	32.91	-0.64293224614804
6	178133	33.01	-0.79690592524955
6	178690	33.11	-0.92321797112618
6	179247	33.21	-1.0268378432148
6	179804	33.31	-1.111842229116
6	180361	33.41	-1.1815754325719
6	180918	33.51	-1.2387809474721
6	181475	33.61	-1.2857093943635
6	182032	33.71	-1.3242070659869
6	182589	33.81	-1.3557885654523
6	183146	33.91	-1.3816963948463
6	183711	34.01	-1.4029498386432
6	184268	34.11	-1.4203850651285
6	184825	34.21	-1.4346880235333
6	185382	34.31	-1.446421431144
6	185939	34.41	-1.451344400094
6	186496	34.51	-1.397101449823
6	187053	34.61	-1.2788663607086
6	187610	34.71	-1.1057321274317
6	188167	34.81	-0.88698187454508
6	188724	34.91	-0.63194631176433
6	189289	35.01	-0.34987179555621
6	189846	35.11	-0.052493373002349
6	190403	35.21	0.22641470089031
6	190960	35.31	0.4552164651292
6	191517	35.41	0.64291360343098
6	192074	35.51	0.79689063172861
6	192631	35.61	0.92320542511199
6	193188	35.71	1.026827551113
6	193745	35.81	1.1118337860077
6	194302	35.91	1.1815685062823
6	194867	36.01	1.2387752655021
6	195424	36.11	1.2857047331693
6	195981	36.21	1.3242032421841
6	196538	36.31	1.355785428602
6	197095	36.41	1.3816938215363
6	197652	36.51	1.4029477276326
6	198209	36.61	1.4203833333644
6	198766	36.71	1.4346866028836
6	199323	36.81	1.4464202657166
6	199880	36.91	1.4513430531444
6	200445	37.01	1.3970967879747
6	201002	37.11	1.2788590631029
6	201559	37.21	1.1057227984756
6	202116	37.31	0.88697104649729
6	202673	37.41	0.63193444814935
6	203230	37.51	0.34985929519937
6	203787	37.61	0.052480841330471
6	204344	37.71	-0.22642498122583
6	204901	37.81	-0.45522489858492
6	205458	37.91	-0.64292052180228
6	206023	38.01	-0.79689630720274
6	206580	38.11	-0.92321008097791
6	207137	38.21	-1.0268313705451
6	207694	38.31	-1.1118369192724
6	208251	38.41	-1.1815710766507
6	208808	38.51	-1.2387773740997
6	209365	38.61	-1.2857064629539
6	209922	38.71	-1.3242046612101
6	210479	38.81	-1.3557865926977
6	211036	38.91	-1.3816947765005
6	211601	39.01	-1.4029485110358
6	212158	39.11	-1.4203839760278
6	212715	39.21	-1.4346871300917
6	213272	39.31	-1.4464206982106
6	213829	39.41	-1.451343553002
6	214386	39.51	-1.3970985180013
6	214943	39.61	-1.2788617712671
6	215500	39.71	-1.1057262604803
6	216057	39.81	-0.88697506481985
6	216614	39.91	-0.63193885077393
6	217179	40.01	-0.34986393412062
6	217736	40.11	-0.052485491872822
6	218293	40.21	0.22642116616147
6	218850	40.31	0.45522176890351
6	219407	40.41	0.6429179543737
6	219964	40.51	0.79689420101712
6	220521	40.61	0.9232083531721
6	221078	40.71	1.0268299531427
6	221635	40.81	1.1118357565088
6	222192	40.91	1.1815701227798
6	222757	41.01	1.238776591593
6	223314	41.11	1.2857058210258
6	223871	41.21	1.3242041346055
6	224428	41.31	1.3557861606985
6	224985	41.41	1.3816944221107
6	225542	41.51	1.4029482203124
6	226099	41.61	1.4203837375334
6	226656	41.71	1.4346869344431
6	227213	41.81	1.4464205377106
6	227770	41.91	1.4513433675033
6	228335	42.01	1.3970978759829
6	228892	42.11	1.2788607662587
6	229449	42.21	1.1057249757194
6	230006	42.31	0.88697357360754
6	230563	42.41	0.63193721694574
6	231120	42.51	0.34986221260169
6	231677	42.61	0.052483766041611
6	232234	42.71	-0.22642258194416
6	232791	42.81	-0.45522293033837
6	233348	42.91	-0.64291890715413
6	233913	43.01	-0.79689498262887
6	234470	43.11	-0.92320899436587
6	235027	43.21	-1.0268304791447
6	235584	43.31	-1.1118361880138
6	236141	43.41	-1.1815704767644
6	236698	43.51	-1.2387768819833
6	237255	43.61	-1.2857060592472
6	237812	43.71	-1.3242043300297
6	238369	43.81	-1.3557863210144
6	238926	43.91	-1.3816945536256
6	239491	44.01	-1.4029483282007
6	240048	44.11	-1.4203838260396
6	240605	44.21	-1.434687007049
6	241162	44.31	-1.4464205972729
6	241719	44.41	-1.4513434363426
6	242276	44.51	-1.3970981142382
6	242833	44.61	-1.2788611392207
6	243390	44.71	-1.1057254524983
6	243947	44.81	-0.88697412700114
6	244504	44.91	-0.63193782326465
6	245069	45.01	-0.34986285146328
6	245626	45.11	-0.052484406503517
6	246183	45.21	0.22642205654222
6	246740	45.31	0.45522249932581
6	247297	45.41	0.64291855357403
6	247854	45.51	0.79689469257005
6	248411	45.61	0.92320875641683
6	248968	45.71	1.0268302839437
6	249525	45.81	1.1118360278807
6	250082	45.91	1.1815703453992
6	250647	46.01	1.2387767742185
6	251204	46.11	1.2857059708423
6	251761	46.21	1.3242042575072
6	252318	46.31	1.3557862615206
6	252875	46.41	1.3816945048196
6	253432	46.51	1.4029482881627
6	253989	46.61	1.4203837931944
6	254546	46.71	1.4346869801049
6	255103	46.81	1.4464205751693
6	255660	46.91	1.4513434107963
6	256225	47.01	1.3970980258211
6	256782	47.11	1.2788610008135
6	257339	47.21	1.1057252755641
6	257896	47.31	0.8869739216351
6	258453	47.41	0.63193759825815
6	259010	47.51	0.34986261438021
6	259567	47.61	0.052484168826261
6	260124	47.71	-0.2264222515203
6	260681	47.81	-0.45522265927591
6	261238	47.91	-0.6429186847889
6	261803	48.01	-0.79689480021159
6	262360	48.11	-0.92320884472006
6	262917	48.21	-1.026830356383
6	263474	48.31	-1.1118360873063
6	264031	48.41	-1.1815703941489
6	264588	48.51	-1.2387768142101
6	265145	48.61	-1.2857060036495
6	265702	48.71	-1.3242042844203
6	266259	48.81	-1.3557862835988
6	266816	48.91	-1.3816945229316
6	267381	49.01	-1.402948303021
6	267938	49.11	-1.4203838053831
6	268495	49.21	-1.4346869901035
6	269052	49.31	-1.4464205833715
6	269609	49.41	-1.4513434202758
6	270166	49.51	-1.3970980586324
6	270723	49.61	-1.2788610521763
6	271280	49.71	-1.105725341225
6	271837	49.81	-0.88697399784721
6	272394	49.91	-0.631937681759
6	272959	50.01	-0.34986270236264
6	273516	50.11	-0.052484257029306
6	274073	50.21	0.22642217916307
6	274630	50.31	0.45522259991753
6	275187	50.41	0.64291863609434
6	275744	50.51	0.79689476026523
6	276301	50.61	0.92320881195018
6	276858	50.71	1.0268303295005
6	277415	50.81	1.1118360652532
6	277972	50.91	1.1815703760576
6	278537	51.01	1.238776799369
6	279094	51.11	1.2857059914746
6	279651	51.21	1.3242042744329
6	280208	51.31	1.3557862754061
6	280765	51.41	1.3816945162109
6	281322	51.51	1.4029482975078
6	281879	51.61	1.4203838008607
6	282436	51.71	1.4346869863935
6	282993	51.81	1.4464205803284
6	283550	51.91	1.4513434167588
6	284115	52.01	1.3970980464567
6	284672	52.11	1.2788610331159
6	285229	52.21	1.105725316858
6	285786	52.31	0.88697396956423
6	286343	52.41	0.63193765077116
6	286900	52.51	0.34986266971107
6	287457	52.61	0.052484224295846
6	288014	52.71	-0.22642220601607
6	288571	52.81	-0.45522262194648
6	289128	52.91	-0.64291865416575
6	289693	53.01	-0.79689477509035
6	290250	53.11	-0.92320882411183
6	290807	53.21	-1.0268303394771
6	291364	53.31	-1.1118360734375
6	291921	53.41	-1.1815703827718
6	292478	53.51	-1.238776804877
6	293035	53.61	-1.2857059959929
6	293592	53.71	-1.3242042781393
6	294149	53.81	-1.3557862784463
6	294706	53.91	-1.3816945187047
6	295271	54.01	-1.4029482995536
6	295828	54.11	-1.4203838025386
6	296385	54.21	-1.4346869877702
6	296942	54.31	-1.4464205814576
6	297499	54.41	-1.4513434180637
6	298056	54.51	-1.3970980509749
6	298613	54.61	-1.2788610401895
6	299170	54.71	-1.1057253259011
5	232	1.11	36.55
5	788	1.21	36.55
5	1344	1.31	36.55
5	1900	1.41	36.55
5	2456	1.51	36.55
5	3012	1.61	36.55
5	3568	1.71	36.55
5	4124	1.81	36.55
5	4680	1.91	36.55
5	5244	2.01	36.55
5	5800	2.11	36.55
5	6356	2.21	36.55
5	6912	2.31	36.55
5	7468	2.41	36.55
5	8024	2.51	36.55
5	8580	2.61	36.55
5	9136	2.71	36.55
5	9692	2.81	36.55
5	10248	2.91	36.55
5	10812	3.01	36.55
5	11368	3.11	36.55
5	11924	3.21	36.55
5	12480	3.31	36.55
5	13036	3.41	36.55
5	13592	3.51	36.55
5	14148	3.61	36.55
5	14704	3.71	36.55
5	15260	3.81	36.55
5	15816	3.91	36.55
5	16380	4.01	36.55
5	16936	4.11	36.55
5	17492	4.21	36.55
5	18048	4.31	36.55
5	18604	4.41	36.55
5	19160	4.51	36.55
5	19716	4.61	36.55
5	20272	4.71	36.55
5	20828	4.81	36.55
5	21384	4.91	36.55
5	21949	5.01	36.55
5	22506	5.11	36.55
5	23063	5.21	36.55
5	23620	5.31	36.55
5	24177	5.41	36.55
5	24734	5.51	36.55
5	25291	5.61	36.55
5	25848	5.71	36.55
5	26405	5.81	36.55
5	26962	5.91	36.55
5	27527	6.01	36.55
5	28084	6.11	36.55
5	28641	6.21	36.55
5	29198	6.31	36.55
5	29755	6.41	36.55
5	30312	6.51	36.55
5	30869	6.61	36.55
5	31426	6.71	36.55
5	31983	6.81	36.55
5	32540	6.91	36.55
5	33105	7.01	36.55
5	33662	7.11	36.55
5	34219	7.21	36.55
5	34776	7.31	36.55
5	35333	7.41	36.55
5	35890	7.51	36.55
5	36447	7.61	36.55
5	37004	7.71	36.55
5	37561	7.81	36.55
5	38118	7.91	36.55
5	38683	8.01	36.55
5	39240	8.11	36.55
5	39797	8.21	36.55
5	40354	8.31	36.55
5	40911	8.41	36.55
5	41468	8.51	36.55
5	42025	8.61	36.55
5	42582	8.71	36.55
5	43139	8.81	36.55
5	43696	8.91	36.55
5	44261	9.01	36.55
5	44818	9.11	36.55
5	45375	9.21	36.55
5	45932	9.31	36.55
5	46489	9.41	36.55
5	47046	9.51	36.55
5	47603	9.61	36.55
5	48160	9.71	36.55
5	48717	9.81	36.55
5	49274	9.91	36.55
5	49839	10.01	36.55
5	50396	10.11	36.55
5	50953	10.21	36.55
5	51510	10.31	36.55
5	52067	10.41	36.55
5	52624	10.51	36.55
5	53181	10.61	36.55
5	53738	10.71	36.55
5	54295	10.81	36.55
5	54852	10.91	36.55
5	55417	11.01	36.55
5	55974	11.11	36.55
5	56531	11.21	36.55
5	57088	11.31	36.55
5	57645	11.41	36.55
5	58202	11.51	36.55
5	58759	11.61	36.55
5	59316	11.71	36.55
5	59873	11.81	36.55
5	60430	11.91	36.55
5	60995	12.01	36.55
5	61552	12.11	36.55
5	62109	12.21	36.55
5	62666	12.31	36.55
5	63223	12.41	36.55
5	63780	12.51	36.55
5	64337	12.61	36.55
5	64894	12.71	36.55
5	65451	12.81	36.55
5	66008	12.91	36.55
5	66573	13.01	36.55
5	67130	13.11	36.55
5	67687	13.21	36.55
5	68244	13.31	36.55
5	68801	13.41	36.55
5	69358	13.51	36.55
5	69915	13.61	36.55
5	70472	13.71	36.55
5	71029	13.81	36.55
5	71586	13.91	36.55
5	72151	14.01	36.55
5	72708	14.11	36.55
5	73265	14.21	36.55
5	73822	14.31	36.55
5	74379	14.41	36.55
5	74936	14.51	36.55
5	75493	14.61	36.55
5	76050	14.71	36.55
5	76607	14.81	36.55
5	77164	14.91	36.55
5	77729	15.01	36.55
5	78286	15.11	36.55
5	78843	15.21	36.55
5	79400	15.31	36.55
5	79957	15.41	36.55
5	80514	15.51	36.55
5	81071	15.61	36.55
5	81628	15.71	36.55
5	82185	15.81	36.55
5	82742	15.91	36.55
5	83307	16.01	36.55
5	83864	16.11	36.55
5	84421	16.21	36.55
5	84978	16.31	36.55
5	85535	16.41	36.55
5	86092	16.51	36.55
5	86649	16.61	36.55
5	87206	16.71	36.55
5	87763	16.81	36.55
5	88320	16.91	36.55
5	88885	17.01	36.55
5	89442	17.11	36.55
5	89999	17.21	36.55
5	90556	17.31	36.55
5	91113	17.41	36.55
5	91670	17.51	36.55
5	92227	17.61	36.55
5	92784	17.71	36.55
5	93341	17.81	36.55
5	93898	17.91	36.55
5	94463	18.01	36.55
5	95020	18.11	36.55
5	95577	18.21	36.55
5	96134	18.31	36.55
5	96691	18.41	36.55
5	97248	18.51	36.55
5	97805	18.61	36.55
5	98362	18.71	36.55
5	98919	18.81	36.55
5	99476	18.91	36.55
5	100041	19.01	36.55
5	100598	19.11	36.55
5	101155	19.21	36.55
5	101712	19.31	36.55
5	102269	19.41	36.55
5	102826	19.51	36.55
5	103383	19.61	36.55
5	103940	19.71	36.55
5	104497	19.81	36.55
5	105054	19.91	36.55
5	105619	20.01	36.55
5	106176	20.11	36.55
5	106733	20.21	36.55
5	107290	20.31	36.55
5	107847	20.41	36.55
5	108404	20.51	36.55
5	108961	20.61	36.55
5	109518	20.71	36.55
5	110075	20.81	36.55
5	110632	20.91	36.55
5	111197	21.01	36.55
5	111754	21.11	36.55
5	112311	21.21	36.55
5	112868	21.31	36.55
5	113425	21.41	36.55
5	113982	21.51	36.55
5	114539	21.61	36.55
5	115096	21.71	36.55
5	115653	21.81	36.55
5	116210	21.91	36.55
5	116775	22.01	36.55
5	117332	22.11	36.55
5	117889	22.21	36.55
5	118446	22.31	36.55
5	119003	22.41	36.55
5	119560	22.51	36.55
5	120117	22.61	36.55
5	120674	22.71	36.55
5	121231	22.81	36.55
5	121788	22.91	36.55
5	122353	23.01	36.55
5	122910	23.11	36.55
5	123467	23.21	36.55
5	124024	23.31	36.55
5	124581	23.41	36.55
5	125138	23.51	36.55
5	125695	23.61	36.55
5	126252	23.71	36.55
5	126809	23.81	36.55
5	127366	23.91	36.55
5	127931	24.01	36.55
5	128488	24.11	36.55
5	129045	24.21	36.55
5	129602	24.31	36.55
5	130159	24.41	36.55
5	130716	24.51	36.55
5	131273	24.61	36.55
5	131830	24.71	36.55
5	132387	24.81	36.55
5	132944	24.91	36.55
5	133509	25.01	36.55
5	134066	25.11	36.55
5	134623	25.21	36.55
5	135180	25.31	36.55
5	135737	25.41	36.55
5	136294	25.51	36.55
5	136851	25.61	36.55
5	137408	25.71	36.55
5	137965	25.81	36.55
5	138522	25.91	36.55
5	139087	26.01	36.55
5	139644	26.11	36.55
5	140201	26.21	36.55
5	140758	26.31	36.55
5	141315	26.41	36.55
5	141872	26.51	36.55
5	142429	26.61	36.55
5	142986	26.71	36.55
5	143543	26.81	36.55
5	144100	26.91	36.55
5	144665	27.01	36.55
5	145222	27.11	36.55
5	145779	27.21	36.55
5	146336	27.31	36.55
5	146893	27.41	36.55
5	147450	27.51	36.55
5	148007	27.61	36.55
5	148564	27.71	36.55
5	149121	27.81	36.55
5	149678	27.91	36.55
5	150243	28.01	36.55
5	150800	28.11	36.55
5	151357	28.21	36.55
5	151914	28.31	36.55
5	152471	28.41	36.55
5	153028	28.51	36.55
5	153585	28.61	36.55
5	154142	28.71	36.55
5	154699	28.81	36.55
5	155256	28.91	36.55
5	155821	29.01	36.55
5	156378	29.11	36.55
5	156935	29.21	36.55
5	157492	29.31	36.55
5	158049	29.41	36.55
5	158606	29.51	36.55
5	159163	29.61	36.55
5	159720	29.71	36.55
5	160277	29.81	36.55
5	160834	29.91	36.55
5	161399	30.01	36.55
5	161956	30.11	36.55
5	162513	30.21	36.55
5	163070	30.31	36.55
5	163627	30.41	36.55
5	164184	30.51	36.55
5	164741	30.61	36.55
5	165298	30.71	36.55
5	165855	30.81	36.55
5	166412	30.91	36.55
5	166977	31.01	36.55
5	167534	31.11	36.55
5	168091	31.21	36.55
5	168648	31.31	36.55
5	169205	31.41	36.55
5	169762	31.51	36.55
5	170319	31.61	36.55
5	170876	31.71	36.55
5	171433	31.81	36.55
5	171990	31.91	36.55
5	172555	32.01	36.55
5	173112	32.11	36.55
5	173669	32.21	36.55
5	174226	32.31	36.55
5	174783	32.41	36.55
5	175340	32.51	36.55
5	175897	32.61	36.55
5	176454	32.71	36.55
5	177011	32.81	36.55
5	177568	32.91	36.55
5	178133	33.01	36.55
5	178690	33.11	36.55
5	179247	33.21	36.55
5	179804	33.31	36.55
5	180361	33.41	36.55
5	180918	33.51	36.55
5	181475	33.61	36.55
5	182032	33.71	36.55
5	182589	33.81	36.55
5	183146	33.91	36.55
5	183711	34.01	36.55
5	184268	34.11	36.55
5	184825	34.21	36.55
5	185382	34.31	36.55
5	185939	34.41	36.55
5	186496	34.51	36.55
5	187053	34.61	36.55
5	187610	34.71	36.55
5	188167	34.81	36.55
5	188724	34.91	36.55
5	189289	35.01	36.55
5	189846	35.11	36.55
5	190403	35.21	36.55
5	190960	35.31	36.55
5	191517	35.41	36.55
5	192074	35.51	36.55
5	192631	35.61	36.55
5	193188	35.71	36.55
5	193745	35.81	36.55
5	194302	35.91	36.55
5	194867	36.01	36.55
5	195424	36.11	36.55
5	195981	36.21	36.55
5	196538	36.31	36.55
5	197095	36.41	36.55
5	197652	36.51	36.55
5	198209	36.61	36.55
5	198766	36.71	36.55
5	199323	36.81	36.55
5	199880	36.91	36.55
5	200445	37.01	36.55
5	201002	37.11	36.55
5	201559	37.21	36.55
5	202116	37.31	36.55
5	202673	37.41	36.55
5	203230	37.51	36.55
5	203787	37.61	36.55
5	204344	37.71	36.55
5	204901	37.81	36.55
5	205458	37.91	36.55
5	206023	38.01	36.55
5	206580	38.11	36.55
5	207137	38.21	36.55
5	207694	38.31	36.55
5	208251	38.41	36.55
5	208808	38.51	36.55
5	209365	38.61	36.55
5	209922	38.71	36.55
5	210479	38.81	36.55
5	211036	38.91	36.55
5	211601	39.01	36.55
5	212158	39.11	36.55
5	212715	39.21	36.55
5	213272	39.31	36.55
5	213829	39.41	36.55
5	214386	39.51	36.55
5	214943	39.61	36.55
5	215500	39.71	36.55
5	216057	39.81	36.55
5	216614	39.91	36.55
5	217179	40.01	36.55
5	217736	40.11	36.55
5	218293	40.21	36.55
5	218850	40.31	36.55
5	219407	40.41	36.55
5	219964	40.51	36.55
5	220521	40.61	36.55
5	221078	40.71	36.55
5	221635	40.81	36.55
5	222192	40.91	36.55
5	222757	41.01	36.55
5	223314	41.11	36.55
5	223871	41.21	36.55
5	224428	41.31	36.55
5	224985	41.41	36.55
5	225542	41.51	36.55
5	226099	41.61	36.55
5	226656	41.71	36.55
5	227213	41.81	36.55
5	227770	41.91	36.55
5	228335	42.01	36.55
5	228892	42.11	36.55
5	229449	42.21	36.55
5	230006	42.31	36.55
5	230563	42.41	36.55
5	231120	42.51	36.55
5	231677	42.61	36.55
5	232234	42.71	36.55
5	232791	42.81	36.55
5	233348	42.91	36.55
5	233913	43.01	36.55
5	234470	43.11	36.55
5	235027	43.21	36.55
5	235584	43.31	36.55
5	236141	43.41	36.55
5	236698	43.51	36.55
5	237255	43.61	36.55
5	237812	43.71	36.55
5	238369	43.81	36.55
5	238926	43.91	36.55
5	239491	44.01	36.55
5	240048	44.11	36.55
5	240605	44.21	36.55
5	241162	44.31	36.55
5	241719	44.41	36.55
5	242276	44.51	36.55
5	242833	44.61	36.55
5	243390	44.71	36.55
5	243947	44.81	36.55
5	244504	44.91	36.55
5	245069	45.01	36.55
5	245626	45.11	36.55
5	246183	45.21	36.55
5	246740	45.31	36.55
5	247297	45.41	36.55
5	247854	45.51	36.55
5	248411	45.61	36.55
5	248968	45.71	36.55
5	249525	45.81	36.55
5	250082	45.91	36.55
5	250647	46.01	36.55
5	251204	46.11	36.55
5	251761	46.21	36.55
5	252318	46.31	36.55
5	252875	46.41	36.55
5	253432	46.51	36.55
5	253989	46.61	36.55
5	254546	46.71	36.55
5	255103	46.81	36.55
5	255660	46.91	36.55
5	256225	47.01	36.55
5	256782	47.11	36.55
5	257339	47.21	36.55
5	257896	47.31	36.55
5	258453	47.41	36.55
5	259010	47.51	36.55
5	259567	47.61	36.55
5	260124	47.71	36.55
5	260681	47.81	36.55
5	261238	47.91	36.55
5	261803	48.01	36.55
5	262360	48.11	36.55
5	262917	48.21	36.55
5	263474	48.31	36.55
5	264031	48.41	36.55
5	264588	48.51	36.55
5	265145	48.61	36.55
5	265702	48.71	36.55
5	266259	48.81	36.55
5	266816	48.91	36.55
5	267381	49.01	36.55
5	267938	49.11	36.55
5	268495	49.21	36.55
5	269052	49.31	36.55
5	269609	49.41	36.55
5	270166	49.51	36.55
5	270723	49.61	36.55
5	271280	49.71	36.55
5	271837	49.81	36.55
5	272394	49.91	36.55
5	272959	50.01	36.55
5	273516	50.11	36.55
5	274073	50.21	36.55
5	274630	50.31	36.55
5	275187	50.41	36.55
5	275744	50.51	36.55
5	276301	50.61	36.55
5	276858	50.71	36.55
5	277415	50.81	36.55
5	277972	50.91	36.55
5	278537	51.01	36.55
5	279094	51.11	36.55
5	279651	51.21	36.55
5	280208	51.31	36.55
5	280765	51.41	36.55
5	281322	51.51	36.55
5	281879	51.61	36.55
5	282436	51.71	36.55
5	282993	51.81	36.55
5	283550	51.91	36.55
5	284115	52.01	36.55
5	284672	52.11	36.55
5	285229	52.21	36.55
5	285786	52.31	36.55
5	286343	52.41	36.55
5	286900	52.51	36.55
5	287457	52.61	36.55
5	288014	52.71	36.55
5	288571	52.81	36.55
5	289128	52.91	36.55
5	289693	53.01	36.55
5	290250	53.11	36.55
5	290807	53.21	36.55
5	291364	53.31	36.55
5	291921	53.41	36.55
5	292478	53.51	36.55
5	293035	53.61	36.55
5	293592	53.71	36.55
5	294149	53.81	36.55
5	294706	53.91	36.55
5	295271	54.01	36.55
5	295828	54.11	36.55
5	296385	54.21	36.55
5	296942	54.31	36.55
5	297499	54.41	36.55
5	298056	54.51	36.55
5	298613	54.61	36.55
5	299170	54.71	36.55
4	232	1.11	175.60652503954
4	788	1.21	176.99541396993
4	1344	1.31	178.38430289897
4	1900	1.41	179.77319182617
4	2456	1.51	181.16208075118
4	3012	1.61	182.55096967375
4	3568	1.71	183.9398585937
4	4124	1.81	185.32874751096
4	4680	1.91	186.71763642549
4	5244	2.01	188.10652533733
4	5800	2.11	189.49541424654
4	6356	2.21	190.88430315325
4	6912	2.31	192.27319205757
4	7468	2.41	193.66208095966
4	8024	2.51	195.05096985968
4	8580	2.61	196.4398587578
4	9136	2.71	197.82874765421
4	9692	2.81	199.21763654907
4	10248	2.91	200.60652544255
4	10812	3.01	201.99541433482
4	11368	3.11	203.38430322604
4	11924	3.21	204.77319211636
4	12480	3.31	206.1620810059
4	13036	3.41	207.5509698948
4	13592	3.51	208.93985878317
4	14148	3.61	210.32874767112
4	14704	3.71	211.71763655874
4	15260	3.81	213.10652544611
4	15816	3.91	214.4954143333
4	16380	4.01	215.88430322038
4	16936	4.11	217.2731921074
4	17492	4.21	218.6620809944
4	18048	4.31	220.05096988142
4	18604	4.41	221.43985876849
4	19160	4.51	222.82874765564
4	19716	4.61	224.21763654288
4	20272	4.71	225.60652543022
4	20828	4.81	226.99541431767
4	21384	4.91	228.38430320525
4	21949	5.01	229.77319209294
4	22506	5.11	231.16208234604
4	23063	5.21	232.55119910097
4	23620	5.31	233.9413159494
4	24177	5.41	235.33365751896
4	24734	5.51	236.72977379337
4	25291	5.61	238.13139963505
4	25848	5.71	239.5402205285
4	26405	5.81	240.95763851413
4	26962	5.91	242.38480388524
4	27527	6.01	243.82266028293
4	28084	6.11	245.27198182162
4	28641	6.21	246.73340354473
4	29198	6.31	248.20744640907
4	29755	6.41	249.69453778065
4	30312	6.51	251.19502821679
4	30869	6.61	252.70917546741
4	31426	6.71	254.23693309956
4	31983	6.81	255.77777459671
4	32540	6.91	257.33071118251
4	33105	7.01	258.89432814417
4	33662	7.11	260.46682836719
4	34219	7.21	262.04608192561
4	34776	7.31	263.62968056008
4	35333	7.41	265.21499633366
4	35890	7.51	266.79931631908
4	36447	7.61	268.38014271
4	37004	7.71	269.9554083611
4	37561	7.81	271.52341749324
4	38118	7.91	273.0827789769
4	38683	8.01	274.63235160131
4	39240	8.11	276.17119917619
4	39797	8.21	277.69855369941
4	40354	8.31	279.21378514174
4	40911	8.41	280.71637665978
4	41468	8.51	282.20590426191
4	42025	8.61	283.68202012732
4	42582	8.71	285.14443892183
4	43139	8.81	286.59292657201
4	43696	8.91	288.02729105611
4	44261	9.01	289.44737484943
4	44818	9.11	290.85304872686
4	45375	9.21	292.24420667876
4	45932	9.31	293.62076174035
4	46489	9.41	294.98264257019
4	47046	9.51	296.32979290627
4	47603	9.61	297.66240804897
4	48160	9.71	298.98134931961
4	48717	9.81	300.28810848059
4	49274	9.91	301.58470264495
4	49839	10.01	302.87356965221
4	50396	10.11	304.15746521919
4	50953	10.21	305.43936210516
4	51510	10.31	306.72218852404
4	52067	10.41	308.00846578497
4	52624	10.51	309.3002687138
4	53181	10.61	310.59929939042
4	53738	10.71	311.90695411314
4	54295	10.81	313.22437833292
4	54852	10.91	314.55251171851
4	55417	11.01	315.89212512557
4	55974	11.11	317.24385092421
4	56531	11.21	318.60820787821
4	57088	11.31	319.98562155453
4	57645	11.41	321.37644106631
4	58202	11.51	322.78095280792
4	58759	11.61	324.19939172249
4	59316	11.71	325.63195054523
4	59873	11.81	327.07878738613
4	60430	11.91	328.54001715104
4	60995	12.01	330.0154348102
4	61552	12.11	331.50419504764
4	62109	12.21	333.00486876202
4	62666	12.31	334.51553006271
4	63223	12.41	336.03384506096
4	63780	12.51	337.55716109319
4	64337	12.61	339.08259595118
4	64894	12.71	340.60726088581
4	65451	12.81	342.12861012264
4	66008	12.91	343.64454455693
4	66573	13.01	345.15334219164
4	67130	13.11	346.65359038946
4	67687	13.21	348.14413029575
4	68244	13.31	349.6240112461
4	68801	13.41	351.09245336456
4	69358	13.51	352.54881688121
4	69915	13.61	353.99257696192
4	70472	13.71	355.42330305987
4	71029	13.81	356.84064197672
4	71586	13.91	358.24430396682
4	72151	14.01	359.63405133781
4	72708	14.11	361.00968909916
4	73265	14.21	362.37105729073
4	73822	14.31	363.71802468949
4	74379	14.41	365.05048442791
4	74936	14.51	366.36850304383
4	75493	14.61	367.67269584329
4	76050	14.71	368.96430656088
4	76607	14.81	370.24512101397
4	77164	14.91	371.51737268676
4	77729	15.01	372.78364818133
4	78286	15.11	374.04679341605
4	78843	15.21	375.3097512647
4	79400	15.31	376.57523088048
4	79957	15.41	377.84547399915
4	80514	15.51	379.12231962481
4	81071	15.61	380.40727638137
4	81628	15.71	381.70158186585
4	82185	15.81	383.00625133891
4	82742	15.91	384.32211766788
4	83307	16.01	385.64986409406
4	83864	16.11	386.99005111328
4	84421	16.21	388.34313852736
4	84978	16.31	389.70950353394
4	85535	16.41	391.08945556645
4	86092	16.51	392.48324846807
4	86649	16.61	393.89109047866
4	87206	16.71	395.31315242739
4	87763	16.81	396.74957445371
4	88320	16.91	398.2004705063
4	88885	17.01	399.66574408116
4	89442	17.11	401.14469680806
4	89999	17.21	402.63601502572
4	90556	17.31	404.13785943732
4	91113	17.41	405.64795753082
4	91670	17.51	407.16369623164
4	92227	17.61	408.68221407237
4	92784	17.71	410.20058540794
4	93341	17.81	411.71615797417
4	93898	17.91	413.22673979924
4	94463	18.01	414.73053270277
4	95020	18.11	416.22606155056
4	95577	18.21	417.71211621877
4	96134	18.31	419.18770398437
4	96691	18.41	420.65201046871
4	97248	18.51	422.10436759764
4	97805	18.61	423.54422731767
4	98362	18.71	424.97114003407
4	98919	18.81	426.38473692253
4	99476	18.91	427.78471541869
4	100041	19.01	429.17082731438
4	100598	19.11	430.54286899244
4	101155	19.21	431.90067341589
4	101712	19.31	433.24410355622
4	102269	19.41	434.57304792106
4	102826	19.51	435.88759167632
4	103383	19.61	437.18840235898
4	103940	19.71	438.47676770321
4	104497	19.81	439.75450716873
4	105054	19.91	441.02387878219
4	105619	20.01	442.28748578282
4	106176	20.11	443.54818384888
4	106733	20.21	444.80890497234
4	107290	20.31	446.07232244932
4	107847	20.41	447.34064665084
4	108404	20.51	448.61569085099
4	108961	20.61	449.89894256609
4	109518	20.71	451.19162207763
4	110075	20.81	452.49473044145
4	110632	20.91	453.80908887202
4	111197	21.01	455.13537105121
4	111754	21.11	456.47412963282
4	112311	21.21	457.82581798544
4	112868	21.31	459.19080802923
4	113425	21.41	460.56940486826
4	113982	21.51	461.96185879413
4	114539	21.61	463.36837513314
4	115096	21.71	464.78912232435
4	115653	21.81	466.22423854649
4	116210	21.91	467.67383620554
4	116775	22.01	469.13782600932
4	117332	22.11	470.61552899809
4	117889	22.21	472.10564781162
4	118446	22.31	473.60635562286
4	119003	22.41	475.11538902285
4	119560	22.51	476.63014111502
4	120117	22.61	478.14775406489
4	120674	22.71	479.66529822513
4	121231	22.81	481.1801080907
4	121788	22.91	482.68998010679
4	122353	23.01	484.19310659094
4	122910	23.11	485.68800461394
4	123467	23.21	487.17345765731
4	124024	23.31	488.64846775221
4	124581	23.41	490.11221621658
4	125138	23.51	491.56403144599
4	125695	23.61	493.00336249088
4	126252	23.71	494.42975738073
4	126809	23.81	495.84284534229
4	127366	23.91	497.24232221233
4	127931	24.01	498.62793847109
4	128488	24.11	499.99948942545
4	129045	24.21	501.35680715576
4	129602	24.31	502.69975390941
4	130159	24.41	504.02821761885
4	130716	24.51	505.34228604464
4	131273	24.61	506.64263390742
4	131830	24.71	507.93055499507
4	132387	24.81	509.2078734005
4	132944	24.91	510.47685053515
4	133509	25.01	511.74009193819
4	134066	25.11	513.00045464377
4	134623	25.21	514.26086916912
4	135180	25.31	515.52400391032
4	135737	25.41	516.79206495146
4	136294	25.51	518.06686204989
4	136851	25.61	519.34987983697
4	137408	25.71	520.6423362275
4	137965	25.81	521.94523033583
4	138522	25.91	523.25938178371
4	139087	26.01	524.58546294646
4	139644	26.11	525.92402540601
4	140201	26.21	527.27552165169
4	140758	26.31	528.64032288233
4	141315	26.41	530.01873361025
4	141872	26.51	531.41100364164
4	142429	26.61	532.81733790457
4	142986	26.71	534.23790451144
4	143543	26.81	535.67284137295
4	144100	26.91	537.12226068226
4	144665	27.01	538.5860741104
4	145222	27.11	540.06360536359
4	145779	27.21	541.55355932823
4	146336	27.31	543.05411089677
4	146893	27.41	544.56299791648
4	147450	27.51	546.07761434444
4	148007	27.61	547.59510284951
4	148564	27.71	549.11253323726
4	149121	27.81	550.6272381845
4	149678	27.91	552.13701254574
4	150243	28.01	553.64004733364
4	150800	28.11	555.1348585485
4	151357	28.21	556.6202287937
4	151914	28.31	558.09515937999
4	152471	28.41	559.55883103434
4	153028	28.51	561.01057166751
4	153585	28.61	562.44982993224
4	154142	28.71	563.87615353174
4	154699	28.81	565.28917142511
4	155256	28.91	566.68857922957
4	155821	29.01	568.07412724523
4	156378	29.11	569.44561063121
4	156935	29.21	570.80286134664
4	157492	29.31	572.14574153949
4	158049	29.41	573.47413906321
4	158606	29.51	574.78814203583
4	159163	29.61	576.08842616734
4	159720	29.71	577.37628607935
4	160277	29.81	578.65354650289
4	160834	29.91	579.92246931557
4	161399	30.01	581.18566037339
4	161956	30.11	582.44597689727
4	162513	30.21	583.70634920143
4	163070	30.31	584.96944500721
4	163627	30.41	586.23746980842
4	164184	30.51	587.51223287815
4	164741	30.61	588.79521845051
4	165298	30.71	590.08764411443
4	165855	30.81	591.3905087169
4	166412	30.91	592.70463166038
4	166977	31.01	594.03068514026
4	167534	31.11	595.36922059089
4	168091	31.21	596.72069038052
4	168648	31.31	598.08546560864
4	169205	31.41	599.46385070613
4	169762	31.51	600.8560954123
4	170319	31.61	602.2624046004
4	170876	31.71	603.68294633784
4	171433	31.81	605.11785849844
4	171990	31.91	606.56725324603
4	172555	32.01	608.03104238429
4	173112	32.11	609.50854998661
4	173669	32.21	610.99848124878
4	174226	32.31	612.49901130006
4	174783	32.41	614.00787816072
4	175340	32.51	615.52247590542
4	175897	32.61	617.03994727231
4	176454	32.71	618.55736199164
4	177011	32.81	620.07205248983
4	177568	32.91	621.58181340231
4	178133	33.01	623.08483556205
4	178690	33.11	624.57963482194
4	179247	33.21	626.0649936644
4	179804	33.31	627.53991330097
4	180361	33.41	629.00357437725
4	180918	33.51	630.45530473722
4	181475	33.61	631.89455297885
4	182032	33.71	633.32086676043
4	182589	33.81	634.73387500418
4	183146	33.91	636.1332732971
4	183711	34.01	637.51881191449
4	184268	34.11	638.89028599512
4	184825	34.21	640.24752748144
4	185382	34.31	641.59039850769
4	185939	34.41	642.91878691647
4	186496	34.51	644.23278087505
4	187053	34.61	645.53305622965
4	187610	34.71	646.8209077167
4	188167	34.81	648.09816015511
4	188724	34.91	649.36707548671
4	189289	35.01	650.6302596111
4	189846	35.11	651.89056977496
4	190403	35.21	653.15093626451
4	190960	35.31	654.4140267082
4	191517	35.41	655.68204651854
4	192074	35.51	656.95680490192
4	192631	35.61	658.23978603775
4	193188	35.71	659.53220747008
4	193745	35.81	660.83506800908
4	194302	35.91	662.149187027
4	194867	36.01	663.47523669446
4	195424	36.11	664.81376842549
4	195981	36.21	666.16523457165
4	196538	36.31	667.53000621877
4	197095	36.41	668.90838778649
4	197652	36.51	670.30062900494
4	198209	36.61	671.70693473979
4	198766	36.71	673.12747305228
4	199323	36.81	674.56238181112
4	199880	36.91	676.01177317613
4	200445	37.01	677.47555896926
4	201002	37.11	678.95306331443
4	201559	37.21	680.44299145008
4	202116	37.31	681.94351853805
4	202673	37.41	683.45238262245
4	203230	37.51	684.96697779414
4	203787	37.61	686.4844468008
4	204344	37.71	688.00185936232
4	204901	37.81	689.51654787061
4	205458	37.91	691.02630693097
4	206023	38.01	692.52932735159
4	206580	38.11	694.02412496506
4	207137	38.21	695.50948223716
4	207694	38.31	696.98440036577
4	208251	38.41	698.44805998526
4	208808	38.51	699.89978893043
4	209365	38.61	701.33903579171
4	209922	38.71	702.76534822118
4	210479	38.81	704.17835513601
4	211036	38.91	705.57775211903
4	211601	39.01	706.96328944211
4	212158	39.11	708.33476224123
4	212715	39.21	709.69200245653
4	213272	39.31	711.03487222039
4	213829	39.41	712.36325937389
4	214386	39.51	713.67725209107
4	214943	39.61	714.97752623693
4	215500	39.71	716.26537656372
4	216057	39.81	717.54262790244
4	216614	39.91	718.81154220376
4	217179	40.01	720.0747253733
4	217736	40.11	721.33503466127
4	218293	40.21	722.59540035005
4	218850	40.31	723.85849005528
4	219407	40.41	725.12650917829
4	219964	40.51	726.40126691628
4	220521	40.61	727.68424744112
4	221078	40.71	728.97666829068
4	221635	40.81	730.27952827007
4	222192	40.91	731.59364674737
4	222757	41.01	732.9196958898
4	223314	41.11	734.25822710857
4	223871	41.21	735.60969275296
4	224428	41.31	736.97446390692
4	224985	41.41	738.35284498853
4	225542	41.51	739.74508572665
4	226099	41.61	741.15139098594
4	226656	41.71	742.57192882675
4	227213	41.81	744.00683711711
4	227770	41.91	745.45622801628
4	228335	42.01	746.92001334872
4	228892	42.11	748.39751724533
4	229449	42.21	749.8874449504
4	230006	42.31	751.38797163027
4	230563	42.41	752.89683533233
4	231120	42.51	754.41143014967
4	231677	42.61	755.92889883129
4	232234	42.71	757.44631109564
4	232791	42.81	758.96099932989
4	233348	42.91	760.47075813517
4	233913	43.01	761.97377831629
4	234470	43.11	763.46857570302
4	235027	43.21	764.95393275886
4	235584	43.31	766.42885067979
4	236141	43.41	767.89251009865
4	236698	43.51	769.34423884898
4	237255	43.61	770.78348552016
4	237812	43.71	772.20979776342
4	238369	43.81	773.62280449524
4	238926	43.91	775.02220129786
4	239491	44.01	776.40773844269
4	240048	44.11	777.77921106533
4	240605	44.21	779.13645110559
4	241162	44.31	780.47932069559
4	241719	44.41	781.80770767621
4	242276	44.51	783.12170022243
4	242833	44.61	784.42197420183
4	243390	44.71	785.70982436883
4	243947	44.81	786.9870755561
4	244504	44.91	788.25598971554
4	245069	45.01	789.51917275358
4	245626	45.11	790.77948192092
4	246183	45.21	792.03984749942
4	246740	45.31	793.30293710296
4	247297	45.41	794.5709561313
4	247854	45.51	795.84571378041
4	248411	45.61	797.12869422111
4	248968	45.71	798.42111499041
4	249525	45.81	799.72397489273
4	250082	45.91	801.03809329558
4	250647	46.01	802.3641423657
4	251204	46.11	803.70267351393
4	251761	46.21	805.05413908922
4	252318	46.31	806.41891017526
4	252875	46.41	807.79729118992
4	253432	46.51	809.1895318619
4	253989	46.61	810.59583705569
4	254546	46.71	812.01637483153
4	255103	46.81	813.45128305738
4	255660	46.91	814.9006738924
4	256225	47.01	816.36445916139
4	256782	47.11	817.84196299622
4	257339	47.21	819.33189064199
4	257896	47.31	820.83241726566
4	258453	47.41	822.34128091508
4	259010	47.51	823.85587568361
4	259567	47.61	825.37334432046
4	260124	47.71	826.89075654389
4	260681	47.81	828.4054447404
4	261238	47.91	829.91520351056
4	261803	48.01	831.41822365869
4	262360	48.11	832.91302101419
4	262917	48.21	834.39837804025
4	263474	48.31	835.87329593258
4	264031	48.41	837.33695532381
4	264588	48.51	838.78868404731
4	265145	48.61	840.2279306923
4	265702	48.71	841.65424290992
4	266259	48.81	843.06724961654
4	266816	48.91	844.46664639431
4	267381	49.01	845.8521835146
4	267938	49.11	847.22365611293
4	268495	49.21	848.58089612908
4	269052	49.31	849.92376569514
4	269609	49.41	851.25215265195
4	270166	49.51	852.56614517463
4	270723	49.61	853.8664191311
4	271280	49.71	855.15426927609
4	271837	49.81	856.43152044251
4	272394	49.91	857.70043458241
4	272959	50.01	858.96361760234
4	273516	50.11	860.22392675306
4	274073	50.21	861.48429231638
4	274630	50.31	862.74738190591
4	275187	50.41	864.01540092122
4	275744	50.51	865.29015855809
4	276301	50.61	866.5731389872
4	276858	50.71	867.86555974545
4	277415	50.81	869.16841963716
4	277972	50.91	870.48253802975
4	278537	51.01	871.80858708991
4	279094	51.11	873.14711822843
4	279651	51.21	874.4985837942
4	280208	51.31	875.86335487089
4	280765	51.41	877.24173587633
4	281322	51.51	878.6339765392
4	281879	51.61	880.04028172397
4	282436	51.71	881.46081949087
4	282993	51.81	882.89572770783
4	283550	51.91	884.34511853401
4	284115	52.01	885.80890379427
4	284672	52.11	887.28640762059
4	285229	52.21	888.7763352582
4	285786	52.31	890.27686187412
4	286343	52.41	891.78572551629
4	286900	52.51	893.3003202781
4	287457	52.61	894.81778890879
4	288014	52.71	896.33520112658
4	288571	52.81	897.84988931789
4	289128	52.91	899.35964808321
4	289693	53.01	900.8626682268
4	290250	53.11	902.357465578
4	290807	53.21	903.84282259996
4	291364	53.31	905.31774048835
4	291921	53.41	906.78139987578
4	292478	53.51	908.23312859558
4	293035	53.61	909.67237523697
4	293592	53.71	911.09868745106
4	294149	53.81	912.5116941542
4	294706	53.91	913.91109092855
4	295271	54.01	915.29662804546
4	295828	54.11	916.66810064044
4	296385	54.21	918.02534065327
4	296942	54.31	919.36821021604
4	297499	54.41	920.69659716957
4	298056	54.51	922.010589689
4	298613	54.61	923.31086364232
4	299170	54.71	924.59871378428
3	232	1.11	13.888889309806
3	788	1.21	13.888889299984
3	1344	1.31	13.888889284553
3	1900	1.41	13.888889264797
3	2456	1.51	13.888889241849
3	3012	1.61	13.888889216692
3	3568	1.71	13.888889190176
3	4124	1.81	13.888889163019
3	4680	1.91	13.888889135825
3	5244	2.01	13.888889109087
3	5800	2.11	13.888889083203
3	6356	2.21	13.888889058484
3	6912	2.31	13.888889035164
3	7468	2.41	13.888889013409
3	8024	2.51	13.88888899333
3	8580	2.61	13.888888974985
3	9136	2.71	13.888888958391
3	9692	2.81	13.888888943532
3	10248	2.91	13.888888930362
3	10812	3.01	13.888888918814
3	11368	3.11	13.888888908804
3	11924	3.21	13.888888900236
3	12480	3.31	13.888888893003
3	13036	3.41	13.888888886995
3	13592	3.51	13.888888882101
3	14148	3.61	13.888888878208
3	14704	3.71	13.888888875206
3	15260	3.81	13.888888872989
3	15816	3.91	13.888888871455
3	16380	4.01	13.888888870509
3	16936	4.11	13.888888870063
3	17492	4.21	13.888888870035
3	18048	4.31	13.88888887035
3	18604	4.41	13.888888870941
3	19160	4.51	13.888888871748
3	19716	4.61	13.888888872717
3	20272	4.71	13.888888873802
3	20828	4.81	13.888888874963
3	21384	4.91	13.888888876165
3	21949	5.01	13.888888877379
3	22506	5.11	13.88895714287
3	23063	5.21	13.8931707169
3	23620	5.31	13.906886981158
3	24177	5.41	13.934167403487
3	24734	5.51	13.977833057683
3	25291	5.61	14.039174898244
3	25848	5.71	14.116438827352
3	26405	5.81	14.206769915256
3	26962	5.91	14.307820624663
3	27527	6.01	14.417665157344
3	28084	6.11	14.534723687999
3	28641	6.21	14.657700209627
3	29198	6.31	14.785531545087
3	29755	6.41	14.917345518821
3	30312	6.51	15.052425059448
3	30869	6.61	15.189500093972
3	31426	6.71	15.324463010101
3	31983	6.81	15.452496243768
3	32540	6.91	15.569092845265
3	33105	7.01	15.670136008044
3	33662	7.11	15.751967163808
3	34219	7.21	15.811442461837
3	34776	7.31	15.845977552212
3	35333	7.41	15.853603639796
3	35890	7.51	15.834314677718
3	36447	7.61	15.791543255453
3	37004	7.71	15.729508036896
3	37561	7.81	15.651669795801
3	38118	7.91	15.560867572035
3	38683	8.01	15.459430367125
3	39240	8.11	15.349268773515
3	39797	8.21	15.231950142466
3	40354	8.31	15.108760247923
3	40911	8.41	14.980753872353
3	41468	8.51	14.848796304763
3	42025	8.61	14.713597383517
3	42582	8.71	14.575739423308
3	43139	8.81	14.435700125008
3	43696	8.91	14.293871369713
3	44261	9.01	14.150574636415
3	44818	9.11	14.006073649857
3	45375	9.21	13.860584756185
3	45932	9.31	13.714285434593
3	46489	9.41	13.567321279832
3	47046	9.51	13.419909418317
3	47603	9.61	13.276568052228
3	48160	9.71	13.144199549998
3	48717	9.81	13.028740637906
3	49274	9.91	12.935077207518
3	49839	10.01	12.867053163966
3	50396	10.11	12.827492798447
3	50953	10.21	12.818184012284
3	51510	10.31	12.836987312871
3	52067	10.41	12.879360323559
3	52624	10.51	12.941068705856
3	53181	10.61	13.01863882738
3	53738	10.71	13.109221099712
3	54295	10.81	13.210477867837
3	54852	10.91	13.320491440438
3	55417	11.01	13.437688642703
3	55974	11.11	13.56077892335
3	56531	11.21	13.688703580829
3	57088	11.31	13.820594111122
3	57645	11.41	13.955738038437
3	58202	11.51	14.093550884467
3	58759	11.61	14.233553173427
3	59316	11.71	14.375351568173
3	59873	11.81	14.518623395246
3	60430	11.91	14.66269730263
3	60995	12.01	14.802538408274
3	61552	12.11	14.931758497807
3	62109	12.21	15.044820373205
3	62666	12.31	15.137065146099
3	63223	12.41	15.204725281664
3	63780	12.51	15.244924342721
3	64337	12.61	15.255706566207
3	64894	12.71	15.238438484058
3	65451	12.81	15.197324887205
3	66008	12.91	15.136649662907
3	66573	13.01	15.05992709079
3	67130	13.11	14.970040104174
3	67687	13.21	14.869353712503
3	68244	13.31	14.759808047257
3	68801	13.41	14.642994691995
3	69358	13.51	14.520219299584
3	69915	13.61	14.392552960135
3	70472	13.71	14.260874340597
3	71029	13.81	14.125904253911
3	71586	13.91	13.988234017746
3	72151	14.01	13.848348718545
3	72708	14.11	13.706646296149
3	73265	14.21	13.56345319983
3	73822	14.31	13.419037231692
3	74379	14.41	13.273657135565
3	74936	14.51	13.130441982788
3	75493	14.61	12.995670307401
3	76050	14.71	12.875370078417
3	76607	14.81	12.774633040977
3	77164	14.91	12.697604313193
3	77729	15.01	12.647485799739
3	78286	15.11	12.626530819682
3	78843	15.21	12.634779968798
3	79400	15.31	12.66849489927
3	79957	15.41	12.723100640181
3	80514	15.51	12.79484412192
3	81071	15.61	12.88064652021
3	81628	15.71	12.977982126792
3	82185	15.81	13.084778981187
3	82742	15.91	13.199337354141
3	83307	16.01	13.320262875649
3	83864	16.11	13.446411676648
3	84421	16.21	13.576845386097
3	84978	16.31	13.71079421291
3	85535	16.41	13.847626660274
3	86092	16.51	13.986824680856
3	86649	16.61	14.127963295405
3	87206	16.71	14.270693872916
3	87763	16.81	14.414730414535
3	88320	16.91	14.559787728906
3	88885	17.01	14.702082559026
3	89442	17.11	14.835117319103
3	89999	17.21	14.95304189545
3	90556	17.31	15.050921902539
3	91113	17.41	15.124749945874
3	91670	17.51	15.171443265846
3	92227	17.61	15.188857753955
3	92784	17.71	15.177461901473
3	93341	17.81	15.141165578244
3	93898	17.91	15.084442196173
3	94463	18.01	15.010961511109
3	95020	18.11	14.923734001024
3	95577	18.21	14.825229306406
3	96134	18.31	14.717473392626
3	96691	18.41	14.602128256938
3	97248	18.51	14.480557315958
3	97805	18.61	14.353879046192
3	98362	18.71	14.223010987939
3	98919	18.81	14.088705843826
3	99476	18.91	13.951581092168
3	100041	19.01	13.812143280257
3	100598	19.11	13.670807953298
3	101155	19.21	13.527916003097
3	101712	19.31	13.383747079665
3	102269	19.41	13.23857652977
3	102826	19.51	13.095945007457
3	103383	19.61	12.962270845178
3	103940	19.71	12.843470007216
3	104497	19.81	12.744535147797
3	105054	19.91	12.669524665226
3	105619	20.01	12.621565448378
3	106176	20.11	12.602842059212
3	106733	20.21	12.613074483492
3	107290	20.31	12.648416390373
3	107847	20.41	12.704356818615
3	108404	20.51	12.777195208837
3	108961	20.61	12.863895813439
3	109518	20.71	12.961968262042
3	110075	20.81	13.069369583537
3	110632	20.91	13.184423830048
3	111197	21.01	13.305756140585
3	111754	21.11	13.432238650273
3	112311	21.21	13.562946117079
3	112868	21.31	13.697119520272
3	113425	21.41	13.834136198489
3	113982	21.51	13.973485352538
3	114539	21.61	14.114747949169
3	115096	21.71	14.25758023517
3	115653	21.81	14.401700213177
3	116210	21.91	14.546829114103
3	116775	22.01	14.689336934087
3	117332	22.11	14.822775023755
3	117889	22.21	14.941251840502
3	118446	22.31	15.039796341815
3	119003	22.41	15.114369048335
3	119560	22.51	15.161859441787
3	120117	22.61	15.180097968285
3	120674	22.71	15.169434538294
3	121231	22.81	15.13373905661
3	121788	22.91	15.07750857388
3	122353	23.01	15.004432237952
3	122910	23.11	14.917536434993
3	123467	23.21	14.819303855751
3	124024	23.31	14.711771171359
3	124581	23.41	14.596609161518
3	125138	23.51	14.475188447516
3	125695	23.61	14.348633416197
3	126252	23.71	14.217866456394
3	126809	23.81	14.083644248221
3	127366	23.91	13.946587532923
3	127931	24.01	13.807205534522
3	128488	24.11	13.665915994083
3	129045	24.21	13.523061604774
3	129602	24.31	13.378923494356
3	130159	24.41	13.233779163163
3	130716	24.51	13.091225460604
3	131273	24.61	12.957699786749
3	131830	24.71	12.839102746868
3	132387	24.81	12.74041340342
3	132944	24.91	12.665678256479
3	133509	25.01	12.618013899389
3	134066	25.11	12.599595455496
3	134623	25.21	12.61009895213
3	135180	25.31	12.645663232756
3	135737	25.41	12.701786084922
3	136294	25.51	12.774774126299
3	136851	25.61	12.861597496972
3	137408	25.71	12.959770656513
3	137965	25.81	13.067254596054
3	138522	25.91	13.182376618139
3	139087	26.01	13.303764528253
3	139644	26.11	13.43029264896
3	140201	26.21	13.561037532686
3	140758	26.31	13.695241630788
3	141315	26.41	13.83228348952
3	141872	26.51	13.971653300362
3	142429	26.61	14.112932842758
3	142986	26.71	14.255779030189
3	143543	26.81	14.39991041221
3	144100	26.91	14.545049017674
3	144665	27.01	14.687585693517
3	145222	27.11	14.821078865042
3	145779	27.21	14.939631290159
3	146336	27.31	15.03826688263
3	146893	27.41	15.112941747789
3	147450	27.51	15.160541546767
3	148007	27.61	15.17889322306
3	148564	27.71	15.168330374919
3	149121	27.81	15.132717405387
3	149678	27.91	15.076554611359
3	150243	28.01	15.003533803743
3	150800	28.11	14.91668355334
3	151357	28.21	14.818488343061
3	151914	28.31	14.710986314233
3	152471	28.41	14.595849452632
3	153028	28.51	14.474449368947
3	153585	28.61	14.347911261671
3	154142	28.71	14.21715818548
3	154699	28.81	14.082947366705
3	155256	28.91	13.945899994678
3	155821	29.01	13.806525661016
3	156378	29.11	13.665242408331
3	156935	29.21	13.522393177171
3	157492	29.31	13.378259298231
3	158049	29.41	13.23311856794
3	158606	29.51	13.090575573438
3	159163	29.61	12.957070340203
3	159720	29.71	12.838501358414
3	160277	29.81	12.739845818791
3	160834	29.91	12.665148582879
3	161399	30.01	12.617524826186
3	161956	30.11	12.59914837223
3	162513	30.21	12.609689194843
3	163070	30.31	12.645284095771
3	163627	30.41	12.701432067251
3	164184	30.51	12.774440715214
3	164741	30.61	12.861280990466
3	165298	30.71	12.959468017648
3	165855	30.81	13.066963333485
3	166412	30.91	13.182094688096
3	166977	31.01	13.303490254132
3	167534	31.11	13.43002465536
3	168091	31.21	13.560774691303
3	168648	31.31	13.694983016015
3	169205	31.41	13.832028342041
3	169762	31.51	13.971400997271
3	170319	31.61	14.112682873057
3	170876	31.71	14.255530974679
3	171433	31.81	14.399663927005
3	171990	31.91	14.544803868766
3	172555	32.01	14.687344518393
3	173112	32.11	14.82084527549
3	173669	32.21	14.939408113045
3	174226	32.31	15.038056250216
3	174783	32.41	15.112745184271
3	175340	32.51	15.16036005018
3	175897	32.61	15.178727309066
3	176454	32.71	15.16817831271
3	177011	32.81	15.132576706465
3	177568	32.91	15.07642323429
3	178133	33.01	15.003410073841
3	178690	33.11	14.91656609678
3	179247	33.21	14.818376032824
3	179804	33.31	14.710878225775
3	180361	33.41	14.595744827503
3	180918	33.51	14.474347584953
3	181475	33.61	14.347811808398
3	182032	33.71	14.21706064421
3	182589	33.81	14.082851393943
3	183146	33.91	13.94580530864
3	183711	34.01	13.806432030538
3	184268	34.11	13.665149643781
3	184825	34.21	13.522301122983
3	185382	34.31	13.378167826789
3	185939	34.41	13.233027592401
3	186496	34.51	13.090486072583
3	187053	34.61	12.956983654378
3	187610	34.71	12.838418536677
3	188167	34.81	12.739767652433
3	188724	34.91	12.665075637532
3	189289	35.01	12.617457472225
3	189846	35.11	12.59908680102
3	190403	35.21	12.609632764073
3	190960	35.31	12.645231881954
3	191517	35.41	12.701383312803
3	192074	35.51	12.774394798654
3	192631	35.61	12.861237401962
3	193188	35.71	12.959426338962
3	193745	35.81	13.066923221514
3	194302	35.91	13.182055861377
3	194867	36.01	13.303452481767
3	195424	36.11	13.429987747933
3	195981	36.21	13.560738493426
3	196538	36.31	13.694947400217
3	197095	36.41	13.83199320375
3	197652	36.51	13.971366250702
3	198209	36.61	14.112648447836
3	198766	36.71	14.255496813076
3	199323	36.81	14.39962998166
3	199880	36.91	14.544770107452
3	200445	37.01	14.68731130434
3	201002	37.11	14.820813106103
3	201559	37.21	14.939377377634
3	202116	37.31	15.038027242431
3	202673	37.41	15.11271811402
3	203230	37.51	15.160335054909
3	203787	37.61	15.178704459793
3	204344	37.71	15.168157371071
3	204901	37.81	15.13255732975
3	205458	37.91	15.076405141359
3	206023	38.01	15.003393034059
3	206580	38.11	14.916549920947
3	207137	38.21	14.81836056573
3	207694	38.31	14.710863340094
3	208251	38.41	14.595730418783
3	208808	38.51	14.474333567508
3	209365	38.61	14.347798111935
3	209922	38.71	14.217047211063
3	210479	38.81	14.082838176806
3	211036	38.91	13.945792268708
3	211601	39.01	13.806419135975
3	212158	39.11	13.665136868471
3	212715	39.21	13.522288445503
3	213272	39.31	13.378155229563
3	213829	39.41	13.23301506347
3	214386	39.51	13.090473746742
3	214943	39.61	12.956971716216
3	215500	39.71	12.838407130668
3	216057	39.81	12.739756887551
3	216614	39.91	12.665065591676
3	217179	40.01	12.617448196401
3	217736	40.11	12.599078321582
3	218293	40.21	12.609624992565
3	218850	40.31	12.645224691194
[...]
36	23864	5.354858210383	0.099987017549
36	24421	5.454884232056	0.100026021673
36	24978	5.554897257895	0.100013025839
36	25535	5.654858287951	0.099961030056
36	26092	5.754871322281	0.10001303433
36	26649	5.854871360953	0.100000038672
36	27206	5.954845404036	0.099974043083
36	27771	6.054845451603	0.100000047567
36	28328	6.154897503728	0.100052052125
36	28885	6.254923560482	0.100026056754
36	29442	6.354871621935	0.099948061453
36	29999	6.454832688158	0.099961066223
36	30556	6.554910759221	0.100078071063
36	31113	6.654910835187	0.100000075966
36	31670	6.754845916114	0.099935080927
36	32227	6.854898002056	0.100052085942
36	32784	6.954885093056	0.099987091
36	33349	7.054846189142	0.099961096086
36	33906	7.154898290329	0.100052101187
36	34463	7.254898396616	0.100000106287
36	35020	7.35485950799	0.099961111374
36	35577	7.45489862442	0.10003911643
36	36134	7.554924745856	0.100026121436
36	36691	7.654898872243	0.099974126387
36	37248	7.754899003515	0.100000131272
36	37805	7.854925139598	0.100026136083
36	38362	7.954873280425	0.099948140827
36	38927	8.054834425922	0.099961145497
36	39484	8.154860576016	0.100026150094
36	40041	8.254860730638	0.100000154622
36	40598	8.35487388972	0.100013159082
36	41155	8.4548870532	0.10001316348
36	41712	8.554913221017	0.100026167817
36	42269	8.654835393108	0.099922172091
36	42826	8.754861569422	0.100026176314
36	43383	8.8548357499	0.099974180478
36	43940	8.954900934492	0.100065184592
36	44505	9.054927123143	0.100026188651
36	45062	9.154914315801	0.099987192658
36	45619	9.254836512416	0.099922196615
36	46176	9.354836712933	0.100000200517
36	46733	9.454862917304	0.100026204371
36	47290	9.554889125472	0.100026208168
36	47847	9.654850337388	0.099961211916
36	48404	9.754876553006	0.100026215618
36	48961	9.854850772294	0.099974219288
36	49518	9.95487699523	0.100026222936
36	50083	10.05492922181	0.10005222658
36	50640	10.154838452046	0.099909230236
36	51197	10.254929685962	0.100091233916
36	51754	10.354890923603	0.099961237641
36	52311	10.454865165025	0.099974241422
36	52868	10.554917410288	0.100052245263
36	53425	10.654865659452	0.099948249164
36	53982	10.754917912589	0.100052253137
36	54539	10.854905169763	0.099987257174
36	55096	10.954827431043	0.09992226128
36	55661	11.054866696495	0.100039265452
36	56218	11.154840966176	0.099974269681
36	56775	11.25485424015	0.100013273974
36	57332	11.35486751847	0.10001327832
36	57889	11.454854801192	0.099987282722
36	58446	11.554829088365	0.099974287173
36	59003	11.654920380042	0.100091291677
36	59560	11.754920676269	0.100000296227
36	60117	11.854920977094	0.100000300825
36	60674	11.954856282563	0.099935305469
36	61239	12.054830592713	0.09997431015
36	61796	12.154921907581	0.100091314868
36	62353	12.254844227187	0.099922319606
36	62910	12.35485755154	0.100013324353
36	63467	12.45487088063	0.10001332909
36	64024	12.554871214434	0.100000333804
36	64581	12.65487155291	0.100000338476
36	65138	12.754832896002	0.099961343092
36	65695	12.854833243641	0.100000347639
36	66252	12.954859595754	0.100026352113
36	66817	13.054911952257	0.100052356503
36	67374	13.154834313066	0.099922360809
36	67931	13.254847678101	0.100013365035
36	68488	13.354835047276	0.099987369175
36	69045	13.454835420509	0.100000373233
36	69602	13.554900797718	0.100065377209
36	70159	13.654888178827	0.099987381109
36	70716	13.75484956376	0.099961384933
36	71273	13.854914952441	0.100065388681
36	71830	13.954863344802	0.099948392361
36	72395	14.054889740771	0.100026395969
36	72952	14.154851140276	0.099961399505
36	73509	14.254903543249	0.100052402973
36	74066	14.354929949621	0.100026406372
36	74623	14.454878359327	0.099948409706
36	75180	14.554917772295	0.100039412968
36	75737	14.654918188467	0.100000416172
36	76294	14.754840607791	0.099922419324
36	76851	14.854893030227	0.100052422436
36	77408	14.954828455752	0.099935425525
36	77973	15.054841884354	0.100013428602
36	78530	15.154868316042	0.100026431688
36	79087	15.254855750839	0.099987434797
36	79644	15.354856188783	0.100000437944
36	80201	15.454843629918	0.099987441135
36	80758	15.554922074289	0.100078444371
36	81315	15.654831521953	0.099909447664
36	81872	15.75485797296	0.100026451007
36	82429	15.854897427365	0.100039454405
36	82986	15.954858885219	0.099961457854
36	83551	16.054885346572	0.100026461353
36	84108	16.154872811469	0.099987464897
36	84665	16.254925279955	0.100052468486
36	85222	16.354886752072	0.099961472117
36	85779	16.454926227858	0.100039475786
36	86336	16.55490070735	0.099974479492
36	86893	16.654927190586	0.100026483236
36	87450	16.7549146776	0.099987487014
36	88007	16.854863168425	0.099948490825
36	88564	16.954902663094	0.100039494669
36	89129	17.054851161637	0.099948498543
36	89686	17.154903664082	0.100052502445
36	90243	17.254878170438	0.099974506356
36	90800	17.354878680707	0.100000510269
36	91357	17.454905194874	0.100026514167
36	91914	17.554853712908	0.099948518034
36	92471	17.654867234761	0.100013521853
36	93028	17.754854760369	0.099987525608
36	93585	17.854894289658	0.100039529289
36	94142	17.954829822542	0.099935532884
36	94707	18.054830358933	0.100000536391
36	95264	18.154882898736	0.100052539803
36	95821	18.254844441857	0.099961543121
36	96378	18.354922988207	0.10007854635
36	96935	18.45489753769	0.099974549483
36	97492	18.55485909022	0.09996155253
36	98049	18.654872645709	0.100013555489
36	98606	18.754847204071	0.099974558362
36	99163	18.854912765223	0.100065561152
36	99720	18.954848329085	0.099935563862
36	100285	19.054900895577	0.100052566492
36	100842	19.154849464621	0.099948569044
36	101399	19.254850036143	0.100000571522
36	101956	19.354837610065	0.099987573922
36	102513	19.454877186311	0.100039576246
36	103070	19.554838764807	0.099961578496
36	103627	19.654904345489	0.100065580682
36	104184	19.754852928298	0.099948582809
36	104741	19.854866513189	0.100013584891
36	105298	19.954906100133	0.100039586944
36	105863	20.054854689119	0.099948588986
36	106420	20.15488128015	0.100026591031
36	106977	20.254855873244	0.099974593094
36	107534	20.354830468434	0.09997459519
36	108091	20.454870065759	0.100039597325
36	108648	20.554844665266	0.099974599507
36	109205	20.654884267002	0.100039601736
36	109762	20.754832871018	0.099948604016
36	110319	20.854872477363	0.100039606345
36	110876	20.954860086083	0.09998760872
36	111441	21.054860697225	0.100000611142
36	111998	21.154900310831	0.100039613606
36	112555	21.254874926947	0.099974616116
36	113112	21.354862545606	0.099987618659
36	113669	21.454850166849	0.099987621243
36	114226	21.55488979071	0.100039623861
36	114783	21.654916417221	0.100026626511
36	115340	21.754891046416	0.099974629195
36	115897	21.854839678327	0.099948631911
36	116454	21.954853312986	0.100013634659
36	117019	22.054892950422	0.100039637436
36	117576	22.154828590659	0.099935640237
36	118133	22.254855233711	0.100026643052
36	118690	22.354855879577	0.100000645866
36	119247	22.454843528242	0.099987648665
36	119804	22.554844179675	0.100000651433
36	120361	22.654922833829	0.100078654154
36	120918	22.754845490639	0.09992265681
36	121475	22.854859150033	0.100013659394
36	122032	22.954885811928	0.100026661895
36	122597	23.054925476232	0.100039664304
36	123154	23.154900142856	0.099974666624
36	123711	23.254900811707	0.100000668851
36	124268	23.354836482693	0.099935670986
36	124825	23.454876155724	0.100039673031
36	125382	23.554889830713	0.100013674989
36	125939	23.654851507573	0.09996167686
36	126496	23.754891186222	0.100039678649
36	127053	23.854839866577	0.099948680355
36	127610	23.954853548559	0.100013681982
36	128175	24.054841232094	0.099987683535
36	128732	24.154919917107	0.100078685013
36	129289	24.25484260352	0.099922686413
36	129846	24.354843291263	0.100000687743
36	130403	24.454830980261	0.099987688998
36	130960	24.554831670446	0.100000690185
36	131517	24.654858361754	0.100026691308
36	132074	24.754924054131	0.100065692377
36	132631	24.854898747537	0.099974693406
36	133188	24.954847441945	0.099948694408
36	133753	25.054848137346	0.100000695401
36	134310	25.154900833749	0.100052696403
36	134867	25.254888531176	0.099987697427
36	135424	25.354889229664	0.100000698488
36	135981	25.454915929259	0.100026699595
36	136538	25.554877630008	0.099961700749
36	137095	25.654891331964	0.100013701956
36	137652	25.754853035182	0.099961703218
36	138209	25.854918739716	0.100065704534
36	138766	25.95486744562	0.099948705904
36	139331	26.054920152943	0.100052707323
36	139888	26.154894861733	0.09997470879
36	140445	26.254921572037	0.100026710304
36	141002	26.354857283898	0.099935711861
36	141559	26.454844997358	0.09998771346
36	142116	26.554832712456	0.099987715098
36	142673	26.654846429233	0.100013716777
36	143230	26.754899147726	0.100052718493
36	143787	26.854873867975	0.099974720249
36	144344	26.954887590015	0.10001372204
36	144909	27.054849313881	0.099961723866
36	145466	27.154876039602	0.100026725721
36	146023	27.254889767197	0.100013727595
36	146580	27.354877496672	0.099987729475
36	147137	27.45483922802	0.099961731348
36	147694	27.554917961214	0.100078733194
36	148251	27.654853696215	0.099935735001
36	148808	27.754906432964	0.100052736749
36	149365	27.854907171392	0.100000738428
36	149922	27.954920911422	0.10001374003
36	150487	28.054856652971	0.099935741549
36	151044	28.154844395953	0.099987742982
36	151601	28.254923140283	0.10007874433
36	152158	28.354884885875	0.099961745592
36	152715	28.454872632645	0.09998774677
36	153272	28.554847380513	0.099974747868
36	153829	28.654913129398	0.100065748885
36	154386	28.754913879225	0.100000749827
36	154943	28.854914629917	0.100000750692
36	155500	28.954915381402	0.100000751485
36	156065	29.054903133611	0.099987752209
36	156622	29.154838886475	0.099935752864
36	157179	29.254917639926	0.100078753451
36	157736	29.354866393896	0.09994875397
36	158293	29.454893148321	0.100026754425
36	158850	29.554880903137	0.099987754816
36	159407	29.654881658288	0.100000755151
36	159964	29.754895413725	0.100013755437
36	160521	29.854883169413	0.099987755688
36	161078	29.954844925335	0.099961755922
36	161643	30.054884681488	0.100039756153
36	162200	30.154911437884	0.100026756396
36	162757	30.254834194559	0.099922756675
36	163314	30.35483495155	0.100000756991
36	163871	30.454913708912	0.100078757362
36	164428	30.554888466698	0.099974757786
36	164985	30.65490222497	0.100013758272
36	165542	30.754889983785	0.099987758815
36	166099	30.854851743207	0.099961759422
36	166656	30.954852503294	0.100000760087
36	167221	31.054892264103	0.100039760809
36	167778	31.15488002569	0.099987761587
36	168335	31.254828788107	0.099948762417
36	168892	31.354868551403	0.100039763296
36	169449	31.454856315629	0.099987764226
36	170006	31.554883080831	0.100026765202
36	170563	31.654883847053	0.100000766222
36	171120	31.75484561434	0.099961767287
36	171677	31.854846382736	0.100000768396
36	172234	31.954873152286	0.10002676955
36	172799	32.054886923029	0.100013770743
36	173356	32.154926695004	0.100039771975
36	173913	32.254888468234	0.09996177323
36	174470	32.354863242731	0.099974774497
36	175027	32.454916018493	0.100052775762
36	175584	32.554890795504	0.099974777011
36	176141	32.654865573725	0.099974778221
36	176698	32.754827353107	0.099961779382
36	177255	32.854867133588	0.100039780481
36	177812	32.954893915098	0.10002678151
36	178377	33.05482969756	0.099935782462
36	178934	33.154843480894	0.100013783334
36	179491	33.254870265015	0.100026784121
36	180048	33.354923049834	0.100052784819
36	180605	33.454884835268	0.099961785434
36	181162	33.554833621224	0.099948785956
36	181719	33.654860407613	0.100026786389
36	182276	33.754900194343	0.10003978673
36	182833	33.854913981317	0.100013786974
36	183390	33.954927768445	0.100013787128
36	183955	34.054928555627	0.100000787182
36	184512	34.154903342765	0.099974787138
36	185069	34.254878129763	0.099974786998
36	185626	34.354891916517	0.100013786754
36	186183	34.454866702926	0.099974786409
36	186740	34.554906488888	0.100039785962
36	187297	34.654829274307	0.099922785419
36	187854	34.7548300591	0.100000784793
36	188411	34.854843843189	0.100013784089
36	188968	34.95490962652	0.100065783331
36	189533	35.054884409049	0.099974782529
36	190090	35.154872190757	0.099987781708
36	190647	35.254833971644	0.099961780887
36	191204	35.354847751721	0.100013780077
36	191761	35.454874531018	0.100026779297
36	192318	35.554927309574	0.100052778556
36	192875	35.654837087442	0.099909777868
36	193432	35.754915864678	0.100078777236
36	193989	35.854851641346	0.099935776668
36	194546	35.954878417516	0.10002677617
36	195111	36.05482719326	0.099948775744
36	195668	36.154892968659	0.100065775399
36	196225	36.254893743794	0.100000775135
36	196782	36.354829518749	0.099935774955
36	197339	36.454882293613	0.100052774864
36	197896	36.554883068473	0.10000077486
36	198453	36.654909843419	0.100026774946
36	199010	36.754910618544	0.100000775125
36	199567	36.854872393941	0.099961775397
36	200124	36.954925169702	0.100052775761
36	200689	37.054860945919	0.099935776217
36	201246	37.15492672268	0.100065776761
36	201803	37.254875500057	0.099948777377
36	202360	37.354902278112	0.100026778055
36	202917	37.454864056891	0.099961778779
36	203474	37.554864836422	0.100000779531
36	204031	37.654865616715	0.100000780293
36	204588	37.754918397755	0.10005278104
36	205145	37.854906179515	0.09998778176
36	205702	37.954906961954	0.100000782439
36	206267	38.054881745019	0.099974783065
36	206824	38.154869528649	0.09998778363
36	207381	38.254831312771	0.099961784122
36	207938	38.35484509731	0.100013784539
36	208495	38.454845882186	0.100000784876
36	209052	38.554846667313	0.100000785127
36	209609	38.654834452601	0.099987785288
36	210166	38.75487423796	0.100039785359
36	210723	38.854836023295	0.099961785335
36	211280	38.954836808507	0.100000785212
36	211845	39.054889593504	0.100052784997
36	212402	39.154851378185	0.099961784681
36	212959	39.25491716245	0.100065784265
36	213516	39.354865946198	0.099948783748
36	214073	39.454853729329	0.099987783131
36	214630	39.554880511744	0.100026782415
36	215187	39.654855293351	0.099974781607
36	215744	39.754869074068	0.100013780717
36	216301	39.854830853823	0.099961779755
36	216858	39.954883632568	0.100052778745
36	217423	40.054884410265	0.100000777697
36	217980	40.154833186901	0.099948776636
36	218537	40.254911962478	0.100078775577
36	219094	40.354873737017	0.099961774539
36	219651	40.454926510553	0.100052773536
36	220208	40.554849283131	0.099922772578
36	220765	40.654850054807	0.100000771676
36	221322	40.754876825641	0.100026770834
36	221879	40.854929595702	0.100052770061
36	222436	40.954930365066	0.100000769364
36	223001	41.054840133807	0.099909768741
36	223558	41.154840902008	0.100000768201
36	224115	41.254828669753	0.099987767745
36	224672	41.354829437127	0.100000767374
36	225229	41.454856204218	0.100026767091
36	225786	41.554921971116	0.100065766898
36	226343	41.654831737913	0.099909766797
36	226900	41.7548975047	0.100065766787
36	227457	41.854872271568	0.099974766868
36	228014	41.954925038613	0.100052767045
36	228579	42.054925805923	0.10000076731
36	229136	42.154887573585	0.099961767662
36	229693	42.254901341674	0.100013768089
36	230250	42.35488911025	0.099987768576
36	230807	42.454889879358	0.100000769108
36	231364	42.554903649027	0.100013769669
36	231921	42.654852419263	0.099948770236
36	232478	42.754879190055	0.100026770792
36	233035	42.854905961376	0.100026771321
36	233592	42.954841733183	0.099935771807
36	234157	43.054881505423	0.10003977224
36	234714	43.154856278035	0.099974772612
36	235271	43.25490905095	0.100052772915
36	235828	43.354857824092	0.099948773142
36	236385	43.454923597383	0.100065773291
36	236942	43.554859370734	0.099935773351
36	237499	43.654860144058	0.100000773324
36	238056	43.754912917266	0.100052773208
36	238613	43.854887690262	0.099974772996
36	239170	43.954914462951	0.100026772689
36	239735	44.054863235239	0.099948772288
36	240292	44.154929007026	0.100065771787
36	240849	44.254929778216	0.10000077119
36	241406	44.354826548705	0.099896770489
36	241963	44.454827318398	0.100000769693
36	242520	44.554854087192	0.100026768794
36	243077	44.654893854998	0.100039767806
36	243634	44.75489462173	0.100000766732
36	244191	44.854830387323	0.099935765593
36	244748	44.954870151724	0.100039764401
36	245313	45.054909914897	0.100039763173
36	245870	45.154923676831	0.100013761934
36	246427	45.254898437526	0.099974760695
36	246984	45.354925197006	0.10002675948
36	247541	45.454847955303	0.099922758297
36	248098	45.554874712465	0.100026757162
36	248655	45.654927468543	0.100052756078
36	249212	45.754876223605	0.099948755062
36	249769	45.854902977716	0.100026754111
36	250326	45.954851730949	0.099948753233
36	250891	46.054839483383	0.099987752434
36	251448	46.1548792351	0.100039751717
36	252005	46.254905986179	0.100026751079
36	252562	46.354841736712	0.099935750533
36	253119	46.454868486784	0.100026750072
36	253676	46.554843236485	0.099974749701
36	254233	46.654830985906	0.099987749421
36	254790	46.75490973514	0.100078749234
36	255347	46.854871484278	0.099961749138
36	255904	46.954833233414	0.099961749136
36	256469	47.05483398264	0.100000749226
36	257026	47.15492573204	0.1000917494
36	257583	47.254848481689	0.099922749649
36	258140	47.354875231651	0.100026749962
36	258697	47.454875981967	0.100000750316
36	259254	47.554889732667	0.1000137507
36	259811	47.654903483761	0.100013751094
36	260368	47.754891235234	0.099987751473
36	260925	47.854917987059	0.100026751825
36	261482	47.954840739197	0.099922752138
36	262047	48.054828491593	0.099987752396
36	262604	48.154842244186	0.100013752593
36	263161	48.254855996908	0.100013752722
36	263718	48.354843749684	0.099987752776
36	264275	48.454922502433	0.100078752749
36	264832	48.554832255071	0.099909752638
36	265389	48.65488500751	0.100052752439
36	265946	48.754911759661	0.100026752151
36	266503	48.854860511427	0.099948751766
36	267060	48.954848262717	0.09998775129
36	267625	49.054849013434	0.100000750717
36	268182	49.154862763478	0.100013750044
36	268739	49.254837512755	0.099974749277
36	269296	49.354929261161	0.100091748406
36	269853	49.4549170086	0.099987747439
36	270410	49.554839754973	0.099922746373
36	270967	49.654918500187	0.100078745214
36	271524	49.754880244164	0.099961743977
36	272081	49.854854986832	0.099974742668
36	272638	49.954920728141	0.100065741309
36	273203	50.054921468057	0.100000739916
36	273760	50.154883206567	0.09996173851
36	274317	50.254883943673	0.100000737106
36	274874	50.354832679397	0.099948735724
36	275431	50.454846413775	0.100013734378
36	275988	50.554899146851	0.100052733076
36	276545	50.654873878685	0.099974731834
36	277102	50.754900609338	0.100026730653
36	277659	50.854875338878	0.09997472954
36	278216	50.95485006738	0.099974728502
36	278781	51.054928794922	0.100078727542
36	279338	51.154851521587	0.099922726665
36	279895	51.254878247456	0.100026725869
36	280452	51.354904972616	0.10002672516
36	281009	51.454827697159	0.099922724543
36	281566	51.554828421173	0.100000724014
36	282123	51.65486814475	0.100039723577
36	282680	51.754829867984	0.099961723234
36	283237	51.854856590969	0.100026722985
36	283794	51.954909313796	0.100052722827
36	284359	52.054884036557	0.099974722761
36	284916	52.15492375934	0.100039722783
36	285473	52.254859482221	0.099935722881
36	286030	52.35483420526	0.099974723039
36	286587	52.454834928506	0.100000723246
36	287144	52.554887651986	0.10005272348
36	287701	52.654901375707	0.100013723721
36	288258	52.75487609966	0.099974723953
36	288815	52.85483782382	0.09996172416
36	289372	52.954838548144	0.100000724324
36	289937	53.054852272581	0.100013724437
36	290494	53.154917997072	0.100065724491
36	291051	53.254879721546	0.099961724474
36	291608	53.35482844593	0.099948724384
36	292165	53.454907170143	0.100078724213
36	292722	53.554842894105	0.099935723962
36	293279	53.654882617726	0.100039723621
36	293836	53.754922340919	0.100039723193
36	294393	53.85492306359	0.100000722671
36	294950	53.954910785645	0.099987722055
36	295515	54.054924506989	0.100013721344
36	296072	54.154925227526	0.100000720537
36	296629	54.254925947158	0.100000719632
36	297186	54.354913665787	0.099987718629
36	297743	54.454901383313	0.099987717526
36	298300	54.554915099643	0.10001371633
36	298857	54.654850814681	0.099935715038
