version 2
run SinusoidalJammingDetail-237-20170803-16:46:52-32027
attr CACCSpacing 5
attr attackAcc -30
attr attackPos 7
attr attackSpeed 150
attr attackStart 32.5
attr attacker 1
attr beaconInterval 0.1
attr configname SinusoidalJammingDetail
attr controller 3
attr datetime 20170803-16:46:52
attr experiment SinusoidalJammingDetail
attr fakeAcc "(1 == 4)"
attr fakePos "(1 == 2)"
attr fakeSpeed "(1 == 3)"
attr inifile omnetpp_237.ini
attr iterationvars "$leaderSpeed=50, $controller=3, $CACCSpacing=5, $sController=\"CONSENSUS\", $attacker=1, $attackStart=32.5, $attackSpeed=150, $attackPos=7, $attackAcc=-30, $0=5, $1=0.8, $nCars=8, $platoonSize=8, $nLanes=1, $beaconInterval=0.1, $priority=2, $packetSize=200, $ploegH=0.5, $leaderHeadway=1.2, $fakeSpeed=(1 == 3), $fakeAcc=(1 == 4), $fakePos=(1 == 2)"
attr iterationvarsf leaderSpeed=50,controller=3,CACCSpacing=5,sController=CONSENSUS,attacker=1,attackStart=32.5,attackSpeed=150,attackPos=7,attackAcc=-30,5,0.8,nCars=8,platoonSize=8,nLanes=1,beaconInterval=0.1,priority=2,packetSize=200,ploegH=0.5,leaderHeadway=1.2,fakeSpeed=(1_==_3),fakeAcc=(1_==_4),fakePos=(1_==_2)-
attr leaderHeadway 1.2
attr leaderSpeed 50
attr measurement "$leaderSpeed=50, $controller=3, $CACCSpacing=5, $sController=\"CONSENSUS\", $attacker=1, $attackStart=32.5, $attackSpeed=150, $attackPos=7, $attackAcc=-30, $0=5, $1=0.8, $nCars=8, $platoonSize=8, $nLanes=1, $beaconInterval=0.1, $priority=2, $packetSize=200, $ploegH=0.5, $leaderHeadway=1.2, $fakeSpeed=(1 == 3), $fakeAcc=(1 == 4), $fakePos=(1 == 2)"
attr nCars 8
attr nLanes 1
attr network scenario
attr packetSize 200
attr platoonSize 8
attr ploegH 0.5
attr priority 2
attr processid 32027
attr repetition 2
attr replication #2
attr resultdir results
attr runnumber 237
attr sController "\"CONSENSUS\""
attr seedset 2
param **.coreDebug false
param **.debug false
param **.headway 0.1s
param **.numberOfCars 8
param **.numberOfCarsPerPlatoon 8
param **.numberOfLanes 1
param **.numericController 3
param **.traffic.nCars 8
param **.traffic.nLanes 1
param **.traffic.platoonInsertDistance 5m
param **.traffic.platoonInsertHeadway 0.8s
param **.traffic.platoonInsertSpeed 50kmph
param **.traffic.platoonInsertTime "1 s"
param **.traffic.platoonLeaderHeadway 1.2s
param **.traffic.platoonSize 8
param **.traffic.platooningVType "\"vtypeauto\""
param **.traffic_type "\"PlatoonsTrafficManager\""
param *.**.nic.mac1609_4.bitrate 6Mbps
param *.**.nic.mac1609_4.txPower 100mW
param *.**.nic.mac1609_4.useServiceChannel false
param *.**.nic.phy80211p.analogueModels "xmldoc(\"config.xml\")"
param *.**.nic.phy80211p.decider "xmldoc(\"config.xml\")"
param *.**.nic.phy80211p.maxTXPower 100mW
param *.**.nic.phy80211p.sensitivity -94dBm
param *.**.nic.phy80211p.thermalNoise -95dBm
param *.**.nic.phy80211p.usePropagationDelay true
param *.**.nic.phy80211p.useThermalNoise true
param *.annotations.draw false
param *.connectionManager.alpha 2.0
param *.connectionManager.carrierFrequency "5.890e9 Hz"
param *.connectionManager.pMax 100mW
param *.connectionManager.sat -94dBm
param *.connectionManager.sendDirect true
param *.manager.autoShutdown true
param *.manager.commandLine "\"sumo --remote-port $port --seed $seed --configuration-file $configFile\""
param *.manager.configFile "\"./sumocfg/freeway.sumo.cfg\""
param *.manager.host "\"localhost\""
param *.manager.margin 25
param *.manager.moduleDisplayString "\"\""
param *.manager.moduleName "\"node\""
param *.manager.moduleType "\"Car\""
param *.manager.updateInterval 0.01s
param *.node[*].appl.attackStart 32.5s
param *.node[*].appl.attackerType 1
param *.node[*].appl.simulationDuration "60 s"
param *.node[*].appl_type "\"SimplePlatooningApp\""
param *.node[*].helper.nCars 8
param *.node[*].helper.nLanes 1
param *.node[*].helper.platoonSize 8
param *.node[*].helper_type "\"PositionHelper\""
param *.node[*].mobility.x 0
param *.node[*].mobility.y 0
param *.node[*].mobility.z 1.895
param *.node[*].prot.attackStart 32.5s
param *.node[*].prot.attackerType 1
param *.node[*].prot.attackingNode 3
param *.node[*].prot.beaconingInterval 0.1s
param *.node[*].prot.fakeAcc "(1 == 4)"
param *.node[*].prot.fakePos "(1 == 2)"
param *.node[*].prot.fakeSpeed "(1 == 3)"
param *.node[*].prot.maliciousAcc "-30 mpss"
param *.node[*].prot.maliciousSpeed 150kmph
param *.node[*].prot.packetSize 200
param *.node[*].prot.priority 2
param *.node[*].prot.shiftX "7 m"
param *.node[*].prot.useControllerAcceleration true
param *.node[*].protocol_type "\"SimplePlatooningBeaconing\""
param *.node[*].scenario.accHeadway 0.1s
param *.node[*].scenario.caccC1 0.5
param *.node[*].scenario.caccOmegaN "0.2 Hz"
param *.node[*].scenario.caccSpacing 5m
param *.node[*].scenario.caccXi 1
param *.node[*].scenario.controller "\"CONSENSUS\""
param *.node[*].scenario.engineTau "0.5 s"
param *.node[*].scenario.leaderHeadway 1.2s
param *.node[*].scenario.leaderOscillationFrequency "0.2 Hz"
param *.node[*].scenario.leaderSpeed 50kmph
param *.node[*].scenario.oscillationAmplitude "10 kmph"
param *.node[*].scenario.ploegH 0.5s
param *.node[*].scenario.ploegKd 0.7
param *.node[*].scenario.ploegKp 0.2
param *.node[*].scenario.startOscillating "5 s"
param *.node[*].scenario.useRealisticEngine false
param *.node[*].scenario_type "\"SinusoidalScenario\""
param *.node[*].unicast.packetLossRate 0
param *.obstacles.debug false
param *.playgroundSizeX 65000m
param *.playgroundSizeY 25000m
param *.playgroundSizeZ 50m
param *.world.use2D false
param *.world.useTorus false

vector 0  scenario.node[0].appl  distance  ETV
vector 1  scenario.node[0].appl  relativeSpeed  ETV
vector 2  scenario.node[0].appl  nodeId  ETV
vector 6  scenario.node[0].appl  acceleration  ETV
vector 7  scenario.node[0].appl  controllerAcceleration  ETV
vector 3  scenario.node[0].appl  speed  ETV
vector 4  scenario.node[0].appl  posx  ETV
vector 5  scenario.node[0].appl  posy  ETV
vector 22  scenario.node[1].appl  distance  ETV
vector 23  scenario.node[1].appl  relativeSpeed  ETV
vector 24  scenario.node[1].appl  nodeId  ETV
vector 28  scenario.node[1].appl  acceleration  ETV
vector 29  scenario.node[1].appl  controllerAcceleration  ETV
vector 25  scenario.node[1].appl  speed  ETV
vector 26  scenario.node[1].appl  posx  ETV
vector 27  scenario.node[1].appl  posy  ETV
vector 44  scenario.node[2].appl  distance  ETV
vector 45  scenario.node[2].appl  relativeSpeed  ETV
vector 46  scenario.node[2].appl  nodeId  ETV
vector 50  scenario.node[2].appl  acceleration  ETV
vector 51  scenario.node[2].appl  controllerAcceleration  ETV
vector 47  scenario.node[2].appl  speed  ETV
vector 48  scenario.node[2].appl  posx  ETV
vector 49  scenario.node[2].appl  posy  ETV
vector 66  scenario.node[3].appl  distance  ETV
vector 67  scenario.node[3].appl  relativeSpeed  ETV
vector 68  scenario.node[3].appl  nodeId  ETV
vector 72  scenario.node[3].appl  acceleration  ETV
vector 73  scenario.node[3].appl  controllerAcceleration  ETV
vector 69  scenario.node[3].appl  speed  ETV
vector 70  scenario.node[3].appl  posx  ETV
vector 71  scenario.node[3].appl  posy  ETV
vector 88  scenario.node[4].appl  distance  ETV
vector 89  scenario.node[4].appl  relativeSpeed  ETV
vector 90  scenario.node[4].appl  nodeId  ETV
vector 94  scenario.node[4].appl  acceleration  ETV
vector 95  scenario.node[4].appl  controllerAcceleration  ETV
vector 91  scenario.node[4].appl  speed  ETV
vector 92  scenario.node[4].appl  posx  ETV
vector 93  scenario.node[4].appl  posy  ETV
vector 110  scenario.node[5].appl  distance  ETV
vector 111  scenario.node[5].appl  relativeSpeed  ETV
vector 112  scenario.node[5].appl  nodeId  ETV
vector 116  scenario.node[5].appl  acceleration  ETV
vector 117  scenario.node[5].appl  controllerAcceleration  ETV
vector 113  scenario.node[5].appl  speed  ETV
vector 114  scenario.node[5].appl  posx  ETV
vector 115  scenario.node[5].appl  posy  ETV
vector 132  scenario.node[6].appl  distance  ETV
vector 133  scenario.node[6].appl  relativeSpeed  ETV
vector 134  scenario.node[6].appl  nodeId  ETV
vector 138  scenario.node[6].appl  acceleration  ETV
vector 139  scenario.node[6].appl  controllerAcceleration  ETV
vector 135  scenario.node[6].appl  speed  ETV
vector 136  scenario.node[6].appl  posx  ETV
vector 137  scenario.node[6].appl  posy  ETV
vector 154  scenario.node[7].appl  distance  ETV
vector 155  scenario.node[7].appl  relativeSpeed  ETV
vector 156  scenario.node[7].appl  nodeId  ETV
vector 160  scenario.node[7].appl  acceleration  ETV
vector 161  scenario.node[7].appl  controllerAcceleration  ETV
vector 157  scenario.node[7].appl  speed  ETV
vector 158  scenario.node[7].appl  posx  ETV
vector 159  scenario.node[7].appl  posy  ETV
vector 168  scenario.node[7].prot  frontDelay  ETV
vector 166  scenario.node[7].prot  frontDelayId  ETV
vector 146  scenario.node[6].prot  frontDelay  ETV
vector 144  scenario.node[6].prot  frontDelayId  ETV
vector 35  scenario.node[1].prot  leaderDelay  ETV
vector 33  scenario.node[1].prot  leaderDelayId  ETV
vector 36  scenario.node[1].prot  frontDelay  ETV
vector 34  scenario.node[1].prot  frontDelayId  ETV
vector 57  scenario.node[2].prot  leaderDelay  ETV
vector 55  scenario.node[2].prot  leaderDelayId  ETV
vector 79  scenario.node[3].prot  leaderDelay  ETV
vector 77  scenario.node[3].prot  leaderDelayId  ETV
vector 101  scenario.node[4].prot  leaderDelay  ETV
vector 99  scenario.node[4].prot  leaderDelayId  ETV
vector 123  scenario.node[5].prot  leaderDelay  ETV
vector 121  scenario.node[5].prot  leaderDelayId  ETV
vector 145  scenario.node[6].prot  leaderDelay  ETV
vector 143  scenario.node[6].prot  leaderDelayId  ETV
vector 167  scenario.node[7].prot  leaderDelay  ETV
vector 165  scenario.node[7].prot  leaderDelayId  ETV
vector 102  scenario.node[4].prot  frontDelay  ETV
vector 100  scenario.node[4].prot  frontDelayId  ETV
vector 80  scenario.node[3].prot  frontDelay  ETV
vector 78  scenario.node[3].prot  frontDelayId  ETV
vector 124  scenario.node[5].prot  frontDelay  ETV
vector 122  scenario.node[5].prot  frontDelayId  ETV
vector 58  scenario.node[2].prot  frontDelay  ETV
vector 56  scenario.node[2].prot  frontDelayId  ETV
vector 8  scenario.node[0].prot  nodeId  ETV
vector 9  scenario.node[0].prot  busyTime  ETV
vector 10  scenario.node[0].prot  collisions  ETV
vector 30  scenario.node[1].prot  nodeId  ETV
vector 31  scenario.node[1].prot  busyTime  ETV
vector 32  scenario.node[1].prot  collisions  ETV
vector 52  scenario.node[2].prot  nodeId  ETV
vector 53  scenario.node[2].prot  busyTime  ETV
vector 54  scenario.node[2].prot  collisions  ETV
vector 74  scenario.node[3].prot  nodeId  ETV
vector 75  scenario.node[3].prot  busyTime  ETV
vector 76  scenario.node[3].prot  collisions  ETV
vector 96  scenario.node[4].prot  nodeId  ETV
vector 97  scenario.node[4].prot  busyTime  ETV
vector 98  scenario.node[4].prot  collisions  ETV
vector 118  scenario.node[5].prot  nodeId  ETV
vector 119  scenario.node[5].prot  busyTime  ETV
vector 120  scenario.node[5].prot  collisions  ETV
vector 140  scenario.node[6].prot  nodeId  ETV
vector 141  scenario.node[6].prot  busyTime  ETV
vector 142  scenario.node[6].prot  collisions  ETV
vector 162  scenario.node[7].prot  nodeId  ETV
vector 163  scenario.node[7].prot  busyTime  ETV
vector 164  scenario.node[7].prot  collisions  ETV
7	232	1.11	-4.215365603244e-07
7	788	1.21	-4.123519392607e-07
7	1344	1.31	-3.9742146640265e-07
7	1900	1.41	-3.7804518804307e-07
7	2456	1.51	-3.5536931619617e-07
7	3012	1.61	-3.3039333047213e-07
7	3568	1.71	-3.039784495229e-07
7	4124	1.81	-2.7685694803381e-07
7	4680	1.91	-2.4964219491608e-07
7	5244	2.01	-2.2283905920517e-07
7	5800	2.11	-1.9685434082817e-07
7	6356	2.21	-1.7200705926257e-07
7	6912	2.31	-1.4853853436136e-07
7	7468	2.41	-1.2662199289082e-07
7	8024	2.51	-1.0637172032091e-07
7	8580	2.61	-8.7851576680009e-08
7	9136	2.71	-7.1082913777332e-08
7	9692	2.81	-5.6051822738823e-08
7	10248	2.91	-4.2715759818179e-08
7	10812	3.01	-3.1009408374416e-08
7	11368	3.11	-2.0849929782685e-08
7	11924	3.21	-1.2141658345399e-08
7	12480	3.31	-4.7800785551999e-09
7	13036	3.41	1.3447181146375e-09
7	13592	3.51	6.3450702469936e-09
7	14148	3.61	1.0333288003039e-08
7	14704	3.71	1.3419677813431e-08
7	15260	3.81	1.5710899248234e-08
7	15816	3.91	1.7308703803565e-08
7	16380	4.01	1.830899876154e-08
7	16936	4.11	1.8801173951033e-08
7	17492	4.21	1.8867702067382e-08
7	18048	4.31	1.8583865113442e-08
7	18604	4.41	1.8017717096086e-08
7	19160	4.51	1.723012310606e-08
7	19716	4.61	1.6274986691656e-08
7	20272	4.71	1.5199535852162e-08
7	20828	4.81	1.4044672980162e-08
7	21384	4.91	1.2845363883685e-08
7	21949	5.01	1.1631094309905e-08
7	22506	5.11	0.3481478814383
7	23063	5.21	0.68726936236521
7	23620	5.31	1.0064706229906
7	24177	5.41	1.2963311628453
7	24734	5.51	1.5
7	25291	5.61	1.5
7	25848	5.71	1.5
7	26405	5.81	1.5
7	26962	5.91	1.5
7	27527	6.01	1.5
7	28084	6.11	1.5
7	28641	6.21	1.5
7	29198	6.31	1.5
7	29755	6.41	1.5
7	30312	6.51	1.4919234130517
7	30869	6.61	1.2264993275909
7	31426	6.71	0.92305383931647
7	31983	6.81	0.58908101929403
7	32540	6.91	0.23235621605629
7	33105	7.01	-0.13919559804423
7	33662	7.11	-0.51762846559318
7	34219	7.21	-0.89509993922417
7	34776	7.31	-1.2639902882471
7	35333	7.41	-1.5
7	35890	7.51	-1.5
7	36447	7.61	-1.5
7	37004	7.71	-1.5
7	37561	7.81	-1.5
7	38118	7.91	-1.5
7	38683	8.01	-1.5
7	39240	8.11	-1.5
7	39797	8.21	-1.5
7	40354	8.31	-1.5
7	40911	8.41	-1.5
7	41468	8.51	-1.5
7	42025	8.61	-1.5
7	42582	8.71	-1.5
7	43139	8.81	-1.5
7	43696	8.91	-1.5
7	44261	9.01	-1.5
7	44818	9.11	-1.5
7	45375	9.21	-1.5
7	45932	9.31	-1.5
7	46489	9.41	-1.5
7	47046	9.51	-1.1784535904988
7	47603	9.61	-0.73985166426131
7	48160	9.71	-0.29046662065306
7	48717	9.81	0.15868205664034
7	49274	9.91	0.59737147685681
7	49839	10.01	1.0162504341391
7	50396	10.11	1.4069035498462
7	50953	10.21	1.5
7	51510	10.31	1.5
7	52067	10.41	1.5
7	52624	10.51	1.5
7	53181	10.61	1.5
7	53738	10.71	1.5
7	54295	10.81	1.5
7	54852	10.91	1.5
7	55417	11.01	1.5
7	55974	11.11	1.5
7	56531	11.21	1.5
7	57088	11.31	1.5
7	57645	11.41	1.5
7	58202	11.51	1.5
7	58759	11.61	1.5
7	59316	11.71	1.5
7	59873	11.81	1.5
7	60430	11.91	1.1420569523224
7	60995	12.01	0.73271074172757
7	61552	12.11	0.30763491701868
7	62109	12.21	-0.12290183401692
7	62666	12.31	-0.54917422866109
7	63223	12.41	-0.96209331717302
7	63780	12.51	-1.3532900275371
7	64337	12.61	-1.5
7	64894	12.71	-1.5
7	65451	12.81	-1.5
7	66008	12.91	-1.5
7	66573	13.01	-1.5
7	67130	13.11	-1.5
7	67687	13.21	-1.5
7	68244	13.31	-1.5
7	68801	13.41	-1.5
7	69358	13.51	-1.5
7	69915	13.61	-1.5
7	70472	13.71	-1.5
7	71029	13.81	-1.5
7	71586	13.91	-1.5
7	72151	14.01	-1.5
7	72708	14.11	-1.5
7	73265	14.21	-1.5
7	73822	14.31	-1.5
7	74379	14.41	-1.3008305793183
7	74936	14.51	-0.88835736021285
7	75493	14.61	-0.45792464374985
7	76050	14.71	-0.020297800482021
7	76607	14.81	0.4143593475729
7	77164	14.91	0.8365748748462
7	77729	15.01	1.2376491838941
7	78286	15.11	1.5
7	78843	15.21	1.5
7	79400	15.31	1.5
7	79957	15.41	1.5
7	80514	15.51	1.5
7	81071	15.61	1.5
7	81628	15.71	1.5
7	82185	15.81	1.5
7	82742	15.91	1.5
7	83307	16.01	1.5
7	83864	16.11	1.5
7	84421	16.21	1.5
7	84978	16.31	1.5
7	85535	16.41	1.5
7	86092	16.51	1.5
7	86649	16.61	1.5
7	87206	16.71	1.5
7	87763	16.81	1.5
7	88320	16.91	1.2451238477388
7	88885	17.01	0.83347870135435
7	89442	17.11	0.40470958876969
7	89999	17.21	-0.030598062218257
7	90556	17.31	-0.46243980386594
7	91113	17.41	-0.8814833530456
7	91670	17.51	-1.2791500631716
7	92227	17.61	-1.5
7	92784	17.71	-1.5
7	93341	17.81	-1.5
7	93898	17.91	-1.5
7	94463	18.01	-1.5
7	95020	18.11	-1.5
7	95577	18.21	-1.5
7	96134	18.31	-1.5
7	96691	18.41	-1.5
7	97248	18.51	-1.5
7	97805	18.61	-1.5
7	98362	18.71	-1.5
7	98919	18.81	-1.5
7	99476	18.91	-1.5
7	100041	19.01	-1.5
7	100598	19.11	-1.5
7	101155	19.21	-1.5
7	101712	19.31	-1.5
7	102269	19.41	-1.2657245815134
7	102826	19.51	-0.85377693481579
7	103383	19.61	-0.42439560038158
7	103940	19.71	0.011767371267542
7	104497	19.81	0.44464851836336
7	105054	19.91	0.86486384400473
7	105619	20.01	1.2637899041122
7	106176	20.11	1.5
7	106733	20.21	1.5
7	107290	20.31	1.5
7	107847	20.41	1.5
7	108404	20.51	1.5
7	108961	20.61	1.5
7	109518	20.71	1.5
7	110075	20.81	1.5
7	110632	20.91	1.5
7	111197	21.01	1.5
7	111754	21.11	1.5
7	112311	21.21	1.5
7	112868	21.31	1.5
7	113425	21.41	1.5
7	113982	21.51	1.5
7	114539	21.61	1.5
7	115096	21.71	1.5
7	115653	21.81	1.5
7	116210	21.91	1.2580915517758
7	116775	22.01	0.84625491634779
7	117332	22.11	0.41709956367461
7	117889	22.21	-0.018747163543122
7	118446	22.31	-0.45124369149455
7	119003	22.41	-0.8710252053863
7	119560	22.51	-1.26948487946
7	120117	22.61	-1.5
7	120674	22.71	-1.5
7	121231	22.81	-1.5
7	121788	22.91	-1.5
7	122353	23.01	-1.5
7	122910	23.11	-1.5
7	123467	23.21	-1.5
7	124024	23.31	-1.5
7	124581	23.41	-1.5
7	125138	23.51	-1.5
7	125695	23.61	-1.5
7	126252	23.71	-1.5
7	126809	23.81	-1.5
7	127366	23.91	-1.5
7	127931	24.01	-1.5
7	128488	24.11	-1.5
7	129045	24.21	-1.5
7	129602	24.31	-1.5
7	130159	24.41	-1.260923965112
7	130716	24.51	-0.84904615684565
7	131273	24.61	-0.41980696481147
7	131830	24.71	0.01615709944571
7	132387	24.81	0.44879633965971
7	132944	24.91	0.86873882266827
7	133509	25.01	1.2673715557189
7	134066	25.11	1.5
7	134623	25.21	1.5
7	135180	25.31	1.5
7	135737	25.41	1.5
7	136294	25.51	1.5
7	136851	25.61	1.5
7	137408	25.71	1.5
7	137965	25.81	1.5
7	138522	25.91	1.5
7	139087	26.01	1.5
7	139644	26.11	1.5
7	140201	26.21	1.5
7	140758	26.31	1.5
7	141315	26.41	1.5
7	141872	26.51	1.5
7	142429	26.61	1.5
7	142986	26.71	1.5
7	143543	26.81	1.5
7	144100	26.91	1.259872851863
7	144665	27.01	0.84801032251393
7	145222	27.11	0.41880224309103
7	145779	27.21	-0.017118277442348
7	146336	27.31	-0.44970455708455
7	146893	27.41	-0.86958730431938
7	147450	27.51	-1.2681558149833
7	148007	27.61	-1.5
7	148564	27.71	-1.5
7	149121	27.81	-1.5
7	149678	27.91	-1.5
7	150243	28.01	-1.5
7	150800	28.11	-1.5
7	151357	28.21	-1.5
7	151914	28.31	-1.5
7	152471	28.41	-1.5
7	153028	28.51	-1.5
7	153585	28.61	-1.5
7	154142	28.71	-1.5
7	154699	28.81	-1.5
7	155256	28.91	-1.5
7	155821	29.01	-1.5
7	156378	29.11	-1.5
7	156935	29.21	-1.5
7	157492	29.31	-1.5
7	158049	29.41	-1.2602629232527
7	158606	29.51	-0.84839472385746
7	159163	29.61	-0.41917509845393
7	159720	29.71	0.016761581285863
7	160277	29.81	0.44936751475712
7	160834	29.91	0.86927243012053
7	161399	30.01	1.2678647739099
7	161956	30.11	1.5
7	162513	30.21	1.5
7	163070	30.31	1.5
7	163627	30.41	1.5
7	164184	30.51	1.5
7	164741	30.61	1.5
7	165298	30.71	1.5
7	165855	30.81	1.5
7	166412	30.91	1.5
7	166977	31.01	1.5
7	167534	31.11	1.5
7	168091	31.21	1.5
7	168648	31.31	1.5
7	169205	31.41	1.5
7	169762	31.51	1.5
7	170319	31.61	1.5
7	170876	31.71	1.5
7	171433	31.81	1.5
7	171990	31.91	1.2601181665191
7	172555	32.01	0.84825207129591
7	173112	32.11	0.4190367306424
7	173669	32.21	-0.01689395236456
7	174226	32.31	-0.44949259223739
7	174783	32.41	-0.86938928093775
7	175340	32.51	-1.2679727801784
7	175897	32.61	-1.5
7	176454	32.71	-1.5
7	177011	32.81	-1.5
7	177568	32.91	-1.5
7	178133	33.01	-1.5
7	178690	33.11	-1.5
7	179247	33.21	-1.5
7	179804	33.31	-1.5
7	180361	33.41	-1.5
7	180918	33.51	-1.5
7	181475	33.61	-1.5
7	182032	33.71	-1.5
7	182589	33.81	-1.5
7	183146	33.91	-1.5
7	183711	34.01	-1.5
7	184268	34.11	-1.5
7	184825	34.21	-1.5
7	185382	34.31	-1.5
7	185939	34.41	-1.2601718862043
7	186496	34.51	-0.8483050101162
7	187053	34.61	-0.4190880793783
7	187610	34.71	0.016844829035321
7	188167	34.81	0.44944617558577
7	188724	34.91	0.86934591722702
7	189289	35.01	1.2679326987079
7	189846	35.11	1.5
7	190403	35.21	1.5
7	190960	35.31	1.5
7	191517	35.41	1.5
7	192074	35.51	1.5
7	192631	35.61	1.5
7	193188	35.71	1.5
7	193745	35.81	1.5
7	194302	35.91	1.5
7	194867	36.01	1.5
7	195424	36.11	1.5
7	195981	36.21	1.5
7	196538	36.31	1.5
7	197095	36.41	1.5
7	197652	36.51	1.5
7	198209	36.61	1.5
7	198766	36.71	1.5
7	199323	36.81	1.5
7	199880	36.91	1.260151950659
7	200445	37.01	0.8482853643524
7	201002	37.11	0.41906902369986
7	201559	37.21	-0.016863058858293
7	202116	37.31	-0.44946340095208
7	202673	37.41	-0.86936200963733
7	203230	37.51	-1.2679475730685
7	203787	37.61	-1.5
7	204344	37.71	-1.5
7	204901	37.81	-1.5
7	205458	37.91	-1.5
7	206023	38.01	-1.5
7	206580	38.11	-1.5
7	207137	38.21	-1.5
7	207694	38.31	-1.5
7	208251	38.41	-1.5
7	208808	38.51	-1.5
7	209365	38.61	-1.5
7	209922	38.71	-1.5
7	210479	38.81	-1.5
7	211036	38.91	-1.5
7	211601	39.01	-1.5
7	212158	39.11	-1.5
7	212715	39.21	-1.5
7	213272	39.31	-1.5
7	213829	39.41	-1.2601593488024
7	214386	39.51	-0.84829265495693
7	214943	39.61	-0.41907609532189
7	215500	39.71	0.016856293713799
7	216057	39.81	0.44945700856461
7	216614	39.91	0.86935603769337
7	217179	40.01	1.2679420531466
7	217736	40.11	1.5
7	218293	40.21	1.5
7	218850	40.31	1.5
7	219407	40.41	1.5
7	219964	40.51	1.5
7	220521	40.61	1.5
7	221078	40.71	1.5
7	221635	40.81	1.5
7	222192	40.91	1.5
7	222757	41.01	1.5
7	223314	41.11	1.5
7	223871	41.21	1.5
7	224428	41.31	1.5
7	224985	41.41	1.5
7	225542	41.51	1.5
7	226099	41.61	1.5
7	226656	41.71	1.5
7	227213	41.81	1.5
7	227770	41.91	1.2601566033274
7	228335	42.01	0.84828994938986
7	228892	42.11	0.41907347101992
7	229449	42.21	-0.016858804280965
7	230006	42.31	-0.44945938080047
7	230563	42.41	-0.86935825390131
7	231120	42.51	-1.2679441016077
7	231677	42.61	-1.5
7	232234	42.71	-1.5
7	232791	42.81	-1.5
7	233348	42.91	-1.5
7	233913	43.01	-1.5
7	234470	43.11	-1.5
7	235027	43.21	-1.5
7	235584	43.31	-1.5
7	236141	43.41	-1.5
7	236698	43.51	-1.5
7	237255	43.61	-1.5
7	237812	43.71	-1.5
7	238369	43.81	-1.5
7	238926	43.91	-1.5
7	239491	44.01	-1.5
7	240048	44.11	-1.5
7	240605	44.21	-1.5
7	241162	44.31	-1.5
7	241719	44.41	-1.2601576221827
7	242276	44.51	-0.84829095343517
7	242833	44.61	-0.41907444490747
7	243390	44.71	0.016857872600761
7	243947	44.81	0.44945850045547
7	244504	44.91	0.86935743145876
7	245069	45.01	1.2679433414165
7	245626	45.11	1.5
7	246183	45.21	1.5
7	246740	45.31	1.5
7	247297	45.41	1.5
7	247854	45.51	1.5
7	248411	45.61	1.5
7	248968	45.71	1.5
7	249525	45.81	1.5
7	250082	45.91	1.5
7	250647	46.01	1.5
7	251204	46.11	1.5
7	251761	46.21	1.5
7	252318	46.31	1.5
7	252875	46.41	1.5
7	253432	46.51	1.5
7	253989	46.61	1.5
7	254546	46.71	1.5
7	255103	46.81	1.5
7	255660	46.91	1.2601572440819
7	256225	47.01	0.84829058083041
7	256782	47.11	0.41907408349436
7	257339	47.21	-0.016858218350617
7	257896	47.31	-0.44945882715468
7	258453	47.41	-0.86935773667018
7	259010	47.51	-1.2679436235263
7	259567	47.61	-1.5
7	260124	47.71	-1.5
7	260681	47.81	-1.5
7	261238	47.91	-1.5
7	261803	48.01	-1.5
7	262360	48.11	-1.5
7	262917	48.21	-1.5
7	263474	48.31	-1.5
7	264031	48.41	-1.5
7	264588	48.51	-1.5
7	265145	48.61	-1.5
7	265702	48.71	-1.5
7	266259	48.81	-1.5
7	266816	48.91	-1.5
7	267381	49.01	-1.5
7	267938	49.11	-1.5
7	268495	49.21	-1.5
7	269052	49.31	-1.5
7	269609	49.41	-1.2601573843972
7	270166	49.51	-0.84829071910619
7	270723	49.61	-0.41907421761691
7	271280	49.71	0.016858090040726
7	271837	49.81	0.44945870591456
7	272394	49.91	0.86935762340428
7	272959	50.01	1.2679435188335
7	273516	50.11	1.5
7	274073	50.21	1.5
7	274630	50.31	1.5
7	275187	50.41	1.5
7	275744	50.51	1.5
7	276301	50.61	1.5
7	276858	50.71	1.5
7	277415	50.81	1.5
7	277972	50.91	1.5
7	278537	51.01	1.5
7	279094	51.11	1.5
7	279651	51.21	1.5
7	280208	51.31	1.5
7	280765	51.41	1.5
7	281322	51.51	1.5
7	281879	51.61	1.5
7	282436	51.71	1.5
7	282993	51.81	1.5
7	283550	51.91	1.2601573323245
7	284115	52.01	0.84829066779032
7	284672	52.11	0.41907416784227
7	285229	52.21	-0.016858137658296
7	285786	52.31	-0.44945875090849
7	286343	52.41	-0.8693576654389
7	286900	52.51	-1.2679435576866
7	287457	52.61	-1.5
7	288014	52.71	-1.5
7	288571	52.81	-1.5
7	289128	52.91	-1.5
7	289693	53.01	-1.5
7	290250	53.11	-1.5
7	290807	53.21	-1.5
7	291364	53.31	-1.5
7	291921	53.41	-1.5
7	292478	53.51	-1.5
7	293035	53.61	-1.5
7	293592	53.71	-1.5
7	294149	53.81	-1.5
7	294706	53.91	-1.5
7	295271	54.01	-1.5
7	295828	54.11	-1.5
7	296385	54.21	-1.5
7	296942	54.31	-1.5
7	297499	54.41	-1.2601573516494
7	298056	54.51	-0.8482906868344
7	298613	54.61	-0.41907418631442
7	299170	54.71	0.01685811998667
6	232	1.11	-6.1957727837125e-08
6	788	1.21	-1.257166815094e-07
6	1344	1.31	-1.7576642363792e-07
6	1900	1.41	-2.1367210223389e-07
6	2456	1.51	-2.40935627005e-07
6	3012	1.61	-2.5897985977963e-07
6	3568	1.71	-2.6913706818732e-07
6	4124	1.81	-2.7264253077419e-07
6	4680	1.91	-2.70628319754e-07
6	5244	2.01	-2.6412187992264e-07
6	5800	2.11	-2.540470944723e-07
6	6356	2.21	-2.4122570607688e-07
6	6912	2.31	-2.2638122487706e-07
6	7468	2.41	-2.1014301410105e-07
6	8024	2.51	-1.9305321785623e-07
6	8580	2.61	-1.7557066911422e-07
6	9136	2.71	-1.5808012676644e-07
6	9692	2.81	-1.408965388805e-07
6	10248	2.91	-1.2427268103465e-07
6	10812	3.01	-1.0840643938081e-07
6	11368	3.11	-9.3446494986438e-08
6	11924	3.21	-7.9497652905047e-08
6	12480	3.31	-6.662919105338e-08
6	13036	3.41	-5.487734711096e-08
6	13592	3.51	-4.4252601583139e-08
6	14148	3.61	-3.474287524341e-08
6	14704	3.71	-2.631832529687e-08
6	15260	3.81	-1.8935253365271e-08
6	15816	3.91	-1.2538947657958e-08
6	16380	4.01	-7.0667027785021e-09
6	16936	4.11	-2.4508395313205e-09
6	17492	4.21	1.3796963571622e-09
6	18048	4.31	4.4970249746257e-09
6	18604	4.41	6.9737993158014e-09
6	19160	4.51	8.8805407472137e-09
6	19716	4.61	1.0285283735811e-08
6	20272	4.71	1.1253575848968e-08
6	20828	4.81	1.1845813219225e-08
6	21384	4.91	1.2119549808176e-08
6	21949	5.01	1.2126655235534e-08
6	22506	5.11	0.0068264407582674
6	23063	5.21	0.074594825204244
6	23620	5.31	0.19005133580965
6	24177	5.41	0.34050271604578
6	24734	5.51	0.51301637992296
6	25291	5.61	0.69025457770344
6	25848	5.71	0.83572671948744
6	26405	5.81	0.95506454367928
6	26962	5.91	1.0529631248657
6	27527	6.01	1.1332740595019
6	28084	6.11	1.1991569981921
6	28641	6.21	1.2532039549377
6	29198	6.31	1.2975412840174
6	29755	6.41	1.333913336549
6	30312	6.51	1.3635927235564
6	30869	6.61	1.3702053601566
6	31426	6.71	1.3272611912161
6	31983	6.81	1.2373810907324
6	32540	6.91	1.10404337413
6	33105	7.01	0.93147091874766
6	33662	7.11	0.72451590435048
6	34219	7.21	0.4885431822391
6	34776	7.31	0.22931329511646
6	35333	7.41	-0.044839399439311
6	35890	7.51	-0.30626147528494
6	36447	7.61	-0.52071863075458
6	37004	7.71	-0.69664819363986
6	37561	7.81	-0.84097171145086
6	38118	7.91	-0.95936726391912
6	38683	8.01	-1.0564928540992
6	39240	8.11	-1.1361696668779
6	39797	8.21	-1.2015324047802
6	40354	8.31	-1.2551526156937
6	40911	8.41	-1.2991398645553
6	41468	8.51	-1.3352247293753
6	42025	8.61	-1.3648268868815
6	42582	8.71	-1.3891109664646
6	43139	8.81	-1.4090323698644
6	43696	8.91	-1.4253748592747
6	44261	9.01	-1.4387813926779
6	44818	9.11	-1.4497794195627
6	45375	9.21	-1.4588016322197
6	45932	9.31	-1.4662029890339
6	46489	9.41	-1.472274679513
6	47046	9.51	-1.4696249147034
6	47603	9.61	-1.3967850639437
6	48160	9.71	-1.2587757641633
6	48717	9.81	-1.0660952218261
6	49274	9.91	-0.82923335021992
6	49839	10.01	-0.55852907837295
6	50396	10.11	-0.26404116072971
6	50953	10.21	0.039432698699926
6	51510	10.31	0.30182609752512
6	52067	10.41	0.51708007614977
6	52624	10.51	0.69366331155596
6	53181	10.61	0.83852306850822
6	53738	10.71	0.95735852384404
6	54295	10.81	1.0548449875937
6	54852	10.91	1.1348178423914
6	55417	11.01	1.2004234378608
6	55974	11.11	1.2542428765666
6	56531	11.21	1.2983935616091
6	57088	11.31	1.3346125010223
6	57645	11.41	1.364324646393
6	58202	11.51	1.3886989543336
6	58759	11.61	1.4086943764131
6	59316	11.71	1.4250975869215
6	59873	11.81	1.4385539327746
6	60430	11.91	1.4345627372796
6	60995	12.01	1.362344918871
6	61552	12.11	1.2299875654412
6	62109	12.21	1.0461448397713
6	62666	12.31	0.81967864248274
6	63223	12.41	0.55952045903922
6	63780	12.51	0.27454262948492
6	64337	12.61	-0.022341644884349
6	64894	12.71	-0.2878054805846
6	65451	12.81	-0.50557828687943
6	66008	12.91	-0.68422783828268
6	66573	13.01	-0.83078269404986
6	67130	13.11	-0.95100872081701
6	67687	13.21	-1.0496359374757
6	68244	13.31	-1.1305446069832
6	68801	13.41	-1.1969178964591
6	69358	13.51	-1.2513671116379
6	69915	13.61	-1.2960344327389
6	70472	13.71	-1.3326771936644
6	71029	13.81	-1.3627370202924
6	71586	13.91	-1.3873965479609
6	72151	14.01	-1.4076259495598
6	72708	14.11	-1.4242211047687
6	73265	14.21	-1.4378349121303
6	73822	14.31	-1.4490029758544
6	74379	14.41	-1.454259395185
6	74936	14.51	-1.4067454390036
6	75493	14.61	-1.2938574955303
6	76050	14.71	-1.124840905225
6	76607	14.81	-0.90912582142568
6	77164	14.91	-0.65618298375991
6	77729	15.01	-0.37539052553566
6	78286	15.11	-0.078063005087259
6	78843	15.21	0.20543869668082
6	79400	15.31	0.43800883573812
6	79957	15.41	0.62879735391554
6	80514	15.51	0.7853103904381
6	81071	15.61	0.91370559385755
6	81628	15.71	1.0190343806947
6	82185	15.81	1.1054406719046
6	82742	15.91	1.1763239259972
6	83307	16.01	1.2344728829815
6	83864	16.11	1.2821752809831
6	84421	16.21	1.3213078620836
6	84978	16.31	1.353410208459
6	85535	16.41	1.3797453137304
6	86092	16.51	1.4013492725669
6	86649	16.61	1.4190720434685
6	87206	16.71	1.433610888447
6	87763	16.81	1.4455378052071
6	88320	16.91	1.4502949065323
6	88885	17.01	1.3935559567521
6	89442	17.11	1.2733368701442
6	89999	17.21	1.0986742440538
6	90556	17.31	0.87879676591474
6	91113	17.41	0.62298329276036
6	91670	17.51	0.34043137853494
6	92227	17.61	0.043031849081565
6	92784	17.71	-0.23417644595263
6	93341	17.81	-0.4615837994951
6	93898	17.91	-0.648137035353
6	94463	18.01	-0.801175665225
6	95020	18.11	-0.92672064505575
6	95577	18.21	-1.0297112558181
6	96134	18.31	-1.1141994282598
6	96691	18.41	-1.1835091568821
6	97248	18.51	-1.2403672749222
6	97805	18.61	-1.2870107353907
6	98362	18.71	-1.325274618886
6	98919	18.81	-1.3566643306579
6	99476	18.91	-1.3824148273438
6	100041	19.01	-1.4035392035211
6	100598	19.11	-1.420868549604
6	101155	19.21	-1.4350846492013
6	101712	19.31	-1.4467468023362
6	102269	19.41	-1.451720194177
6	102826	19.51	-1.3984004323888
6	103383	19.61	-1.2808993810095
6	103940	19.71	-1.1083308503775
6	104497	19.81	-0.88999806036849
6	105054	19.91	-0.63525086466907
6	105619	20.01	-0.35335363991358
6	106176	20.11	-0.055983891307321
6	106733	20.21	0.22355126013291
6	107290	20.31	0.4528674463721
6	107847	20.41	0.6409865898874
6	108404	20.51	0.79530980944416
6	108961	20.61	0.92190860023873
6	109518	20.71	1.0257637030335
6	110075	20.81	1.1109610600444
6	110632	20.91	1.1808525670222
6	111197	21.01	1.2381879459472
6	111754	21.11	1.2852229265711
6	112311	21.21	1.3238079929604
6	112868	21.31	1.3554611865732
6	113425	21.41	1.3814278301394
6	113982	21.51	1.4027295220425
6	114539	21.61	1.4202043287794
6	115096	21.71	1.4345397567766
6	115653	21.81	1.4462998007621
6	116210	21.91	1.4512038299459
6	116775	22.01	1.3966149622043
6	117332	22.11	1.2781048258539
6	117889	22.21	1.1047586168255
6	118446	22.31	0.88585193073953
6	119003	22.41	0.63070830476128
6	119560	22.51	0.34856734381012
6	120117	22.61	0.0511856543703
6	120674	22.71	-0.22748748564663
6	121231	22.81	-0.45609652228009
6	121788	22.91	-0.6436355568189
6	122353	23.01	-0.79748288496297
6	122910	23.11	-0.92369127904615
6	123467	23.21	-1.0272261205623
6	124024	23.31	-1.1121607517778
6	124581	23.41	-1.1818367320961
6	125138	23.51	-1.2389953040925
6	125695	23.61	-1.2858852414526
6	126252	23.71	-1.3243513218477
6	126809	23.81	-1.3559069055024
6	127366	23.91	-1.3817934749051
6	127931	24.01	-1.4030294781042
6	128488	24.11	-1.4204503972245
6	129045	24.21	-1.4347416186069
6	129602	24.31	-1.4464653977715
6	130159	24.41	-1.4513952146874
6	130716	24.51	-1.3972773206753
6	131273	24.61	-1.2791416668554
6	131830	24.71	-1.1060840673016
6	132387	24.81	-0.88739036841616
6	132944	24.91	-0.63239387292562
6	133509	25.01	-0.35034337810913
6	134066	25.11	-0.052966136909482
6	134623	25.21	0.22602686982296
6	135180	25.31	0.45489830857282
6	135737	25.41	0.64265260424126
6	136294	25.51	0.79667652148707
6	136851	25.61	0.92302978013983
6	137408	25.71	1.026683461059
6	137965	25.81	1.1117155819768
6	138522	25.91	1.1814715378065
6	139087	26.01	1.2386957175778
6	139644	26.11	1.2856394761648
6	140201	26.21	1.3241497087115
6	140758	26.31	1.3557415125092
6	141315	26.41	1.3816577950445
6	141872	26.51	1.4029181733612
6	142429	26.61	1.4203590885678
6	142986	26.71	1.4346667137062
6	143543	26.81	1.4464039496636
6	144100	26.91	1.4513241957731
6	144665	27.01	1.3970315218257
6	145222	27.11	1.2787568961965
6	145779	27.21	1.105592192547
6	146336	27.31	0.88681945319422
6	146893	27.41	0.63176835684544
6	147450	27.51	0.34968428947462
6	148007	27.61	0.052305397195518
6	148564	27.71	-0.22656890652382
6	149121	27.81	-0.45534296745871
6	149678	27.91	-0.64301737940227
6	150243	28.01	-0.79697576416979
6	150800	28.11	-0.92327526336593
6	151357	28.21	-1.0268848428064
6	151914	28.31	-1.1118807851512
6	152471	28.41	-1.1816070619497
6	153028	28.51	-1.2388068945784
6	153585	28.61	-1.2857306800282
6	154142	28.71	-1.3242245276457
6	154699	28.81	-1.3558028900942
6	155256	28.91	-1.3817081460418
6	155821	29.01	-1.4029594787162
6	156378	29.11	-1.420392973346
6	156935	29.21	-1.4346945110265
6	157492	29.31	-1.446426753148
6	158049	29.41	-1.451350551031
6	158606	29.51	-1.3971227384756
6	159163	29.61	-1.2788996857301
6	159720	29.71	-1.1057747287552
6	160277	29.81	-0.8870313215759
6	160834	29.91	-0.6320004877848
6	161399	30.01	-0.34992887930123
6	161956	30.11	-0.052550599748891
6	162513	30.21	0.22636775502605
6	163070	30.31	0.45517795316936
6	163627	30.41	0.64288201021068
6	164184	30.51	0.79686471428388
6	164741	30.61	0.92318416378063
6	165298	30.71	1.0268101094166
6	165855	30.81	1.1118194777421
6	166412	30.91	1.1815567685211
6	166977	31.01	1.2387656364497
6	167534	31.11	1.2856968339927
6	168091	31.21	1.3241967621083
6	168648	31.31	1.3557801126831
6	169205	31.41	1.3816894606315
6	169762	31.51	1.4029441501719
6	170319	31.61	1.4203803986005
6	170876	31.71	1.4346841953552
6	171433	31.81	1.4464182907044
6	171990	31.91	1.4513407705126
6	172555	32.01	1.397088887688
6	173112	32.11	1.278846696081
6	173669	32.21	1.1057069889883
6	174226	32.31	0.88695269654568
6	174783	32.41	0.63191434325471
6	175340	32.51	0.34983811123848
6	175897	32.61	0.052459604300914
6	176454	32.71	-0.22644240298693
6	177011	32.81	-0.4552391904971
6	177568	32.91	-0.64293224614804
6	178133	33.01	-0.79690592524955
6	178690	33.11	-0.92321797112618
6	179247	33.21	-1.0268378432148
6	179804	33.31	-1.111842229116
6	180361	33.41	-1.1815754325719
6	180918	33.51	-1.2387809474721
6	181475	33.61	-1.2857093943635
6	182032	33.71	-1.3242070659869
6	182589	33.81	-1.3557885654523
6	183146	33.91	-1.3816963948463
6	183711	34.01	-1.4029498386432
6	184268	34.11	-1.4203850651285
6	184825	34.21	-1.4346880235333
6	185382	34.31	-1.446421431144
6	185939	34.41	-1.451344400094
6	186496	34.51	-1.397101449823
6	187053	34.61	-1.2788663607086
6	187610	34.71	-1.1057321274317
6	188167	34.81	-0.88698187454508
6	188724	34.91	-0.63194631176433
6	189289	35.01	-0.34987179555621
6	189846	35.11	-0.052493373002349
6	190403	35.21	0.22641470089031
6	190960	35.31	0.4552164651292
6	191517	35.41	0.64291360343098
6	192074	35.51	0.79689063172861
6	192631	35.61	0.92320542511199
6	193188	35.71	1.026827551113
6	193745	35.81	1.1118337860077
6	194302	35.91	1.1815685062823
6	194867	36.01	1.2387752655021
6	195424	36.11	1.2857047331693
6	195981	36.21	1.3242032421841
6	196538	36.31	1.355785428602
6	197095	36.41	1.3816938215363
6	197652	36.51	1.4029477276326
6	198209	36.61	1.4203833333644
6	198766	36.71	1.4346866028836
6	199323	36.81	1.4464202657166
6	199880	36.91	1.4513430531444
6	200445	37.01	1.3970967879747
6	201002	37.11	1.2788590631029
6	201559	37.21	1.1057227984756
6	202116	37.31	0.88697104649729
6	202673	37.41	0.63193444814935
6	203230	37.51	0.34985929519937
6	203787	37.61	0.052480841330471
6	204344	37.71	-0.22642498122583
6	204901	37.81	-0.45522489858492
6	205458	37.91	-0.64292052180228
6	206023	38.01	-0.79689630720274
6	206580	38.11	-0.92321008097791
6	207137	38.21	-1.0268313705451
6	207694	38.31	-1.1118369192724
6	208251	38.41	-1.1815710766507
6	208808	38.51	-1.2387773740997
6	209365	38.61	-1.2857064629539
6	209922	38.71	-1.3242046612101
6	210479	38.81	-1.3557865926977
6	211036	38.91	-1.3816947765005
6	211601	39.01	-1.4029485110358
6	212158	39.11	-1.4203839760278
6	212715	39.21	-1.4346871300917
6	213272	39.31	-1.4464206982106
6	213829	39.41	-1.451343553002
6	214386	39.51	-1.3970985180013
6	214943	39.61	-1.2788617712671
6	215500	39.71	-1.1057262604803
6	216057	39.81	-0.88697506481985
6	216614	39.91	-0.63193885077393
6	217179	40.01	-0.34986393412062
6	217736	40.11	-0.052485491872822
6	218293	40.21	0.22642116616147
6	218850	40.31	0.45522176890351
6	219407	40.41	0.6429179543737
6	219964	40.51	0.79689420101712
6	220521	40.61	0.9232083531721
6	221078	40.71	1.0268299531427
6	221635	40.81	1.1118357565088
6	222192	40.91	1.1815701227798
6	222757	41.01	1.238776591593
6	223314	41.11	1.2857058210258
6	223871	41.21	1.3242041346055
6	224428	41.31	1.3557861606985
6	224985	41.41	1.3816944221107
6	225542	41.51	1.4029482203124
6	226099	41.61	1.4203837375334
6	226656	41.71	1.4346869344431
6	227213	41.81	1.4464205377106
6	227770	41.91	1.4513433675033
6	228335	42.01	1.3970978759829
6	228892	42.11	1.2788607662587
6	229449	42.21	1.1057249757194
6	230006	42.31	0.88697357360754
6	230563	42.41	0.63193721694574
6	231120	42.51	0.34986221260169
6	231677	42.61	0.052483766041611
6	232234	42.71	-0.22642258194416
6	232791	42.81	-0.45522293033837
6	233348	42.91	-0.64291890715413
6	233913	43.01	-0.79689498262887
6	234470	43.11	-0.92320899436587
6	235027	43.21	-1.0268304791447
6	235584	43.31	-1.1118361880138
6	236141	43.41	-1.1815704767644
6	236698	43.51	-1.2387768819833
6	237255	43.61	-1.2857060592472
6	237812	43.71	-1.3242043300297
6	238369	43.81	-1.3557863210144
6	238926	43.91	-1.3816945536256
6	239491	44.01	-1.4029483282007
6	240048	44.11	-1.4203838260396
6	240605	44.21	-1.434687007049
6	241162	44.31	-1.4464205972729
6	241719	44.41	-1.4513434363426
6	242276	44.51	-1.3970981142382
6	242833	44.61	-1.2788611392207
6	243390	44.71	-1.1057254524983
6	243947	44.81	-0.88697412700114
6	244504	44.91	-0.63193782326465
6	245069	45.01	-0.34986285146328
6	245626	45.11	-0.052484406503517
6	246183	45.21	0.22642205654222
6	246740	45.31	0.45522249932581
6	247297	45.41	0.64291855357403
6	247854	45.51	0.79689469257005
6	248411	45.61	0.92320875641683
6	248968	45.71	1.0268302839437
6	249525	45.81	1.1118360278807
6	250082	45.91	1.1815703453992
6	250647	46.01	1.2387767742185
6	251204	46.11	1.2857059708423
6	251761	46.21	1.3242042575072
6	252318	46.31	1.3557862615206
6	252875	46.41	1.3816945048196
6	253432	46.51	1.4029482881627
6	253989	46.61	1.4203837931944
6	254546	46.71	1.4346869801049
6	255103	46.81	1.4464205751693
6	255660	46.91	1.4513434107963
6	256225	47.01	1.3970980258211
6	256782	47.11	1.2788610008135
6	257339	47.21	1.1057252755641
6	257896	47.31	0.8869739216351
6	258453	47.41	0.63193759825815
6	259010	47.51	0.34986261438021
6	259567	47.61	0.052484168826261
6	260124	47.71	-0.2264222515203
6	260681	47.81	-0.45522265927591
6	261238	47.91	-0.6429186847889
6	261803	48.01	-0.79689480021159
6	262360	48.11	-0.92320884472006
6	262917	48.21	-1.026830356383
6	263474	48.31	-1.1118360873063
6	264031	48.41	-1.1815703941489
6	264588	48.51	-1.2387768142101
6	265145	48.61	-1.2857060036495
6	265702	48.71	-1.3242042844203
6	266259	48.81	-1.3557862835988
6	266816	48.91	-1.3816945229316
6	267381	49.01	-1.402948303021
6	267938	49.11	-1.4203838053831
6	268495	49.21	-1.4346869901035
6	269052	49.31	-1.4464205833715
6	269609	49.41	-1.4513434202758
6	270166	49.51	-1.3970980586324
6	270723	49.61	-1.2788610521763
6	271280	49.71	-1.105725341225
6	271837	49.81	-0.88697399784721
6	272394	49.91	-0.631937681759
6	272959	50.01	-0.34986270236264
6	273516	50.11	-0.052484257029306
6	274073	50.21	0.22642217916307
6	274630	50.31	0.45522259991753
6	275187	50.41	0.64291863609434
6	275744	50.51	0.79689476026523
6	276301	50.61	0.92320881195018
6	276858	50.71	1.0268303295005
6	277415	50.81	1.1118360652532
6	277972	50.91	1.1815703760576
6	278537	51.01	1.238776799369
6	279094	51.11	1.2857059914746
6	279651	51.21	1.3242042744329
6	280208	51.31	1.3557862754061
6	280765	51.41	1.3816945162109
6	281322	51.51	1.4029482975078
6	281879	51.61	1.4203838008607
6	282436	51.71	1.4346869863935
6	282993	51.81	1.4464205803284
6	283550	51.91	1.4513434167588
6	284115	52.01	1.3970980464567
6	284672	52.11	1.2788610331159
6	285229	52.21	1.105725316858
6	285786	52.31	0.88697396956423
6	286343	52.41	0.63193765077116
6	286900	52.51	0.34986266971107
6	287457	52.61	0.052484224295846
6	288014	52.71	-0.22642220601607
6	288571	52.81	-0.45522262194648
6	289128	52.91	-0.64291865416575
6	289693	53.01	-0.79689477509035
6	290250	53.11	-0.92320882411183
6	290807	53.21	-1.0268303394771
6	291364	53.31	-1.1118360734375
6	291921	53.41	-1.1815703827718
6	292478	53.51	-1.238776804877
6	293035	53.61	-1.2857059959929
6	293592	53.71	-1.3242042781393
6	294149	53.81	-1.3557862784463
6	294706	53.91	-1.3816945187047
6	295271	54.01	-1.4029482995536
6	295828	54.11	-1.4203838025386
6	296385	54.21	-1.4346869877702
6	296942	54.31	-1.4464205814576
6	297499	54.41	-1.4513434180637
6	298056	54.51	-1.3970980509749
6	298613	54.61	-1.2788610401895
6	299170	54.71	-1.1057253259011
5	232	1.11	36.55
5	788	1.21	36.55
5	1344	1.31	36.55
5	1900	1.41	36.55
5	2456	1.51	36.55
5	3012	1.61	36.55
5	3568	1.71	36.55
5	4124	1.81	36.55
5	4680	1.91	36.55
5	5244	2.01	36.55
5	5800	2.11	36.55
5	6356	2.21	36.55
5	6912	2.31	36.55
5	7468	2.41	36.55
5	8024	2.51	36.55
5	8580	2.61	36.55
5	9136	2.71	36.55
5	9692	2.81	36.55
5	10248	2.91	36.55
5	10812	3.01	36.55
5	11368	3.11	36.55
5	11924	3.21	36.55
5	12480	3.31	36.55
5	13036	3.41	36.55
5	13592	3.51	36.55
5	14148	3.61	36.55
5	14704	3.71	36.55
5	15260	3.81	36.55
5	15816	3.91	36.55
5	16380	4.01	36.55
5	16936	4.11	36.55
5	17492	4.21	36.55
5	18048	4.31	36.55
5	18604	4.41	36.55
5	19160	4.51	36.55
5	19716	4.61	36.55
5	20272	4.71	36.55
5	20828	4.81	36.55
5	21384	4.91	36.55
5	21949	5.01	36.55
5	22506	5.11	36.55
5	23063	5.21	36.55
5	23620	5.31	36.55
5	24177	5.41	36.55
5	24734	5.51	36.55
5	25291	5.61	36.55
5	25848	5.71	36.55
5	26405	5.81	36.55
5	26962	5.91	36.55
5	27527	6.01	36.55
5	28084	6.11	36.55
5	28641	6.21	36.55
5	29198	6.31	36.55
5	29755	6.41	36.55
5	30312	6.51	36.55
5	30869	6.61	36.55
5	31426	6.71	36.55
5	31983	6.81	36.55
5	32540	6.91	36.55
5	33105	7.01	36.55
5	33662	7.11	36.55
5	34219	7.21	36.55
5	34776	7.31	36.55
5	35333	7.41	36.55
5	35890	7.51	36.55
5	36447	7.61	36.55
5	37004	7.71	36.55
5	37561	7.81	36.55
5	38118	7.91	36.55
5	38683	8.01	36.55
5	39240	8.11	36.55
5	39797	8.21	36.55
5	40354	8.31	36.55
5	40911	8.41	36.55
5	41468	8.51	36.55
5	42025	8.61	36.55
5	42582	8.71	36.55
5	43139	8.81	36.55
5	43696	8.91	36.55
5	44261	9.01	36.55
5	44818	9.11	36.55
5	45375	9.21	36.55
5	45932	9.31	36.55
5	46489	9.41	36.55
5	47046	9.51	36.55
5	47603	9.61	36.55
5	48160	9.71	36.55
5	48717	9.81	36.55
5	49274	9.91	36.55
5	49839	10.01	36.55
5	50396	10.11	36.55
5	50953	10.21	36.55
5	51510	10.31	36.55
5	52067	10.41	36.55
5	52624	10.51	36.55
5	53181	10.61	36.55
5	53738	10.71	36.55
5	54295	10.81	36.55
5	54852	10.91	36.55
5	55417	11.01	36.55
5	55974	11.11	36.55
5	56531	11.21	36.55
5	57088	11.31	36.55
5	57645	11.41	36.55
5	58202	11.51	36.55
5	58759	11.61	36.55
5	59316	11.71	36.55
5	59873	11.81	36.55
5	60430	11.91	36.55
5	60995	12.01	36.55
5	61552	12.11	36.55
5	62109	12.21	36.55
5	62666	12.31	36.55
5	63223	12.41	36.55
5	63780	12.51	36.55
5	64337	12.61	36.55
5	64894	12.71	36.55
5	65451	12.81	36.55
5	66008	12.91	36.55
5	66573	13.01	36.55
5	67130	13.11	36.55
5	67687	13.21	36.55
5	68244	13.31	36.55
5	68801	13.41	36.55
5	69358	13.51	36.55
5	69915	13.61	36.55
5	70472	13.71	36.55
5	71029	13.81	36.55
5	71586	13.91	36.55
5	72151	14.01	36.55
5	72708	14.11	36.55
5	73265	14.21	36.55
5	73822	14.31	36.55
5	74379	14.41	36.55
5	74936	14.51	36.55
5	75493	14.61	36.55
5	76050	14.71	36.55
5	76607	14.81	36.55
5	77164	14.91	36.55
5	77729	15.01	36.55
5	78286	15.11	36.55
5	78843	15.21	36.55
5	79400	15.31	36.55
5	79957	15.41	36.55
5	80514	15.51	36.55
5	81071	15.61	36.55
5	81628	15.71	36.55
5	82185	15.81	36.55
5	82742	15.91	36.55
5	83307	16.01	36.55
5	83864	16.11	36.55
5	84421	16.21	36.55
5	84978	16.31	36.55
5	85535	16.41	36.55
5	86092	16.51	36.55
5	86649	16.61	36.55
5	87206	16.71	36.55
5	87763	16.81	36.55
5	88320	16.91	36.55
5	88885	17.01	36.55
5	89442	17.11	36.55
5	89999	17.21	36.55
5	90556	17.31	36.55
5	91113	17.41	36.55
5	91670	17.51	36.55
5	92227	17.61	36.55
5	92784	17.71	36.55
5	93341	17.81	36.55
5	93898	17.91	36.55
5	94463	18.01	36.55
5	95020	18.11	36.55
5	95577	18.21	36.55
5	96134	18.31	36.55
5	96691	18.41	36.55
5	97248	18.51	36.55
5	97805	18.61	36.55
5	98362	18.71	36.55
5	98919	18.81	36.55
5	99476	18.91	36.55
5	100041	19.01	36.55
5	100598	19.11	36.55
5	101155	19.21	36.55
5	101712	19.31	36.55
5	102269	19.41	36.55
5	102826	19.51	36.55
5	103383	19.61	36.55
5	103940	19.71	36.55
5	104497	19.81	36.55
5	105054	19.91	36.55
5	105619	20.01	36.55
5	106176	20.11	36.55
5	106733	20.21	36.55
5	107290	20.31	36.55
5	107847	20.41	36.55
5	108404	20.51	36.55
5	108961	20.61	36.55
5	109518	20.71	36.55
5	110075	20.81	36.55
5	110632	20.91	36.55
5	111197	21.01	36.55
5	111754	21.11	36.55
5	112311	21.21	36.55
5	112868	21.31	36.55
5	113425	21.41	36.55
5	113982	21.51	36.55
5	114539	21.61	36.55
5	115096	21.71	36.55
5	115653	21.81	36.55
5	116210	21.91	36.55
5	116775	22.01	36.55
5	117332	22.11	36.55
5	117889	22.21	36.55
5	118446	22.31	36.55
5	119003	22.41	36.55
5	119560	22.51	36.55
5	120117	22.61	36.55
5	120674	22.71	36.55
5	121231	22.81	36.55
5	121788	22.91	36.55
5	122353	23.01	36.55
5	122910	23.11	36.55
5	123467	23.21	36.55
5	124024	23.31	36.55
5	124581	23.41	36.55
5	125138	23.51	36.55
5	125695	23.61	36.55
5	126252	23.71	36.55
5	126809	23.81	36.55
5	127366	23.91	36.55
5	127931	24.01	36.55
5	128488	24.11	36.55
5	129045	24.21	36.55
5	129602	24.31	36.55
5	130159	24.41	36.55
5	130716	24.51	36.55
5	131273	24.61	36.55
5	131830	24.71	36.55
5	132387	24.81	36.55
5	132944	24.91	36.55
5	133509	25.01	36.55
5	134066	25.11	36.55
5	134623	25.21	36.55
5	135180	25.31	36.55
5	135737	25.41	36.55
5	136294	25.51	36.55
5	136851	25.61	36.55
5	137408	25.71	36.55
5	137965	25.81	36.55
5	138522	25.91	36.55
5	139087	26.01	36.55
5	139644	26.11	36.55
5	140201	26.21	36.55
5	140758	26.31	36.55
5	141315	26.41	36.55
5	141872	26.51	36.55
5	142429	26.61	36.55
5	142986	26.71	36.55
5	143543	26.81	36.55
5	144100	26.91	36.55
5	144665	27.01	36.55
5	145222	27.11	36.55
5	145779	27.21	36.55
5	146336	27.31	36.55
5	146893	27.41	36.55
5	147450	27.51	36.55
5	148007	27.61	36.55
5	148564	27.71	36.55
5	149121	27.81	36.55
5	149678	27.91	36.55
5	150243	28.01	36.55
5	150800	28.11	36.55
5	151357	28.21	36.55
5	151914	28.31	36.55
5	152471	28.41	36.55
5	153028	28.51	36.55
5	153585	28.61	36.55
5	154142	28.71	36.55
5	154699	28.81	36.55
5	155256	28.91	36.55
5	155821	29.01	36.55
5	156378	29.11	36.55
5	156935	29.21	36.55
5	157492	29.31	36.55
5	158049	29.41	36.55
5	158606	29.51	36.55
5	159163	29.61	36.55
5	159720	29.71	36.55
5	160277	29.81	36.55
5	160834	29.91	36.55
5	161399	30.01	36.55
5	161956	30.11	36.55
5	162513	30.21	36.55
5	163070	30.31	36.55
5	163627	30.41	36.55
5	164184	30.51	36.55
5	164741	30.61	36.55
5	165298	30.71	36.55
5	165855	30.81	36.55
5	166412	30.91	36.55
5	166977	31.01	36.55
5	167534	31.11	36.55
5	168091	31.21	36.55
5	168648	31.31	36.55
5	169205	31.41	36.55
5	169762	31.51	36.55
5	170319	31.61	36.55
5	170876	31.71	36.55
5	171433	31.81	36.55
5	171990	31.91	36.55
5	172555	32.01	36.55
5	173112	32.11	36.55
5	173669	32.21	36.55
5	174226	32.31	36.55
5	174783	32.41	36.55
5	175340	32.51	36.55
5	175897	32.61	36.55
5	176454	32.71	36.55
5	177011	32.81	36.55
5	177568	32.91	36.55
5	178133	33.01	36.55
5	178690	33.11	36.55
5	179247	33.21	36.55
5	179804	33.31	36.55
5	180361	33.41	36.55
5	180918	33.51	36.55
5	181475	33.61	36.55
5	182032	33.71	36.55
5	182589	33.81	36.55
5	183146	33.91	36.55
5	183711	34.01	36.55
5	184268	34.11	36.55
5	184825	34.21	36.55
5	185382	34.31	36.55
5	185939	34.41	36.55
5	186496	34.51	36.55
5	187053	34.61	36.55
5	187610	34.71	36.55
5	188167	34.81	36.55
5	188724	34.91	36.55
5	189289	35.01	36.55
5	189846	35.11	36.55
5	190403	35.21	36.55
5	190960	35.31	36.55
5	191517	35.41	36.55
5	192074	35.51	36.55
5	192631	35.61	36.55
5	193188	35.71	36.55
5	193745	35.81	36.55
5	194302	35.91	36.55
5	194867	36.01	36.55
5	195424	36.11	36.55
5	195981	36.21	36.55
5	196538	36.31	36.55
5	197095	36.41	36.55
5	197652	36.51	36.55
5	198209	36.61	36.55
5	198766	36.71	36.55
5	199323	36.81	36.55
5	199880	36.91	36.55
5	200445	37.01	36.55
5	201002	37.11	36.55
5	201559	37.21	36.55
5	202116	37.31	36.55
5	202673	37.41	36.55
5	203230	37.51	36.55
5	203787	37.61	36.55
5	204344	37.71	36.55
5	204901	37.81	36.55
5	205458	37.91	36.55
5	206023	38.01	36.55
5	206580	38.11	36.55
5	207137	38.21	36.55
5	207694	38.31	36.55
5	208251	38.41	36.55
5	208808	38.51	36.55
5	209365	38.61	36.55
5	209922	38.71	36.55
5	210479	38.81	36.55
5	211036	38.91	36.55
5	211601	39.01	36.55
5	212158	39.11	36.55
5	212715	39.21	36.55
5	213272	39.31	36.55
5	213829	39.41	36.55
5	214386	39.51	36.55
5	214943	39.61	36.55
5	215500	39.71	36.55
5	216057	39.81	36.55
5	216614	39.91	36.55
5	217179	40.01	36.55
5	217736	40.11	36.55
5	218293	40.21	36.55
5	218850	40.31	36.55
5	219407	40.41	36.55
5	219964	40.51	36.55
5	220521	40.61	36.55
5	221078	40.71	36.55
5	221635	40.81	36.55
5	222192	40.91	36.55
5	222757	41.01	36.55
5	223314	41.11	36.55
5	223871	41.21	36.55
5	224428	41.31	36.55
5	224985	41.41	36.55
5	225542	41.51	36.55
5	226099	41.61	36.55
5	226656	41.71	36.55
5	227213	41.81	36.55
5	227770	41.91	36.55
5	228335	42.01	36.55
5	228892	42.11	36.55
5	229449	42.21	36.55
5	230006	42.31	36.55
5	230563	42.41	36.55
5	231120	42.51	36.55
5	231677	42.61	36.55
5	232234	42.71	36.55
5	232791	42.81	36.55
5	233348	42.91	36.55
5	233913	43.01	36.55
5	234470	43.11	36.55
5	235027	43.21	36.55
5	235584	43.31	36.55
5	236141	43.41	36.55
5	236698	43.51	36.55
5	237255	43.61	36.55
5	237812	43.71	36.55
5	238369	43.81	36.55
5	238926	43.91	36.55
5	239491	44.01	36.55
5	240048	44.11	36.55
5	240605	44.21	36.55
5	241162	44.31	36.55
5	241719	44.41	36.55
5	242276	44.51	36.55
5	242833	44.61	36.55
5	243390	44.71	36.55
5	243947	44.81	36.55
5	244504	44.91	36.55
5	245069	45.01	36.55
5	245626	45.11	36.55
5	246183	45.21	36.55
5	246740	45.31	36.55
5	247297	45.41	36.55
5	247854	45.51	36.55
5	248411	45.61	36.55
5	248968	45.71	36.55
5	249525	45.81	36.55
5	250082	45.91	36.55
5	250647	46.01	36.55
5	251204	46.11	36.55
5	251761	46.21	36.55
5	252318	46.31	36.55
5	252875	46.41	36.55
5	253432	46.51	36.55
5	253989	46.61	36.55
5	254546	46.71	36.55
5	255103	46.81	36.55
5	255660	46.91	36.55
5	256225	47.01	36.55
5	256782	47.11	36.55
5	257339	47.21	36.55
5	257896	47.31	36.55
5	258453	47.41	36.55
5	259010	47.51	36.55
5	259567	47.61	36.55
5	260124	47.71	36.55
5	260681	47.81	36.55
5	261238	47.91	36.55
5	261803	48.01	36.55
5	262360	48.11	36.55
5	262917	48.21	36.55
5	263474	48.31	36.55
5	264031	48.41	36.55
5	264588	48.51	36.55
5	265145	48.61	36.55
5	265702	48.71	36.55
5	266259	48.81	36.55
5	266816	48.91	36.55
5	267381	49.01	36.55
5	267938	49.11	36.55
5	268495	49.21	36.55
5	269052	49.31	36.55
5	269609	49.41	36.55
5	270166	49.51	36.55
5	270723	49.61	36.55
5	271280	49.71	36.55
5	271837	49.81	36.55
5	272394	49.91	36.55
5	272959	50.01	36.55
5	273516	50.11	36.55
5	274073	50.21	36.55
5	274630	50.31	36.55
5	275187	50.41	36.55
5	275744	50.51	36.55
5	276301	50.61	36.55
5	276858	50.71	36.55
5	277415	50.81	36.55
5	277972	50.91	36.55
5	278537	51.01	36.55
5	279094	51.11	36.55
5	279651	51.21	36.55
5	280208	51.31	36.55
5	280765	51.41	36.55
5	281322	51.51	36.55
5	281879	51.61	36.55
5	282436	51.71	36.55
5	282993	51.81	36.55
5	283550	51.91	36.55
5	284115	52.01	36.55
5	284672	52.11	36.55
5	285229	52.21	36.55
5	285786	52.31	36.55
5	286343	52.41	36.55
5	286900	52.51	36.55
5	287457	52.61	36.55
5	288014	52.71	36.55
5	288571	52.81	36.55
5	289128	52.91	36.55
5	289693	53.01	36.55
5	290250	53.11	36.55
5	290807	53.21	36.55
5	291364	53.31	36.55
5	291921	53.41	36.55
5	292478	53.51	36.55
5	293035	53.61	36.55
5	293592	53.71	36.55
5	294149	53.81	36.55
5	294706	53.91	36.55
5	295271	54.01	36.55
5	295828	54.11	36.55
5	296385	54.21	36.55
5	296942	54.31	36.55
5	297499	54.41	36.55
5	298056	54.51	36.55
5	298613	54.61	36.55
5	299170	54.71	36.55
4	232	1.11	177.05997047411
4	788	1.21	178.4488594045
4	1344	1.31	179.83774833354
4	1900	1.41	181.22663726074
4	2456	1.51	182.61552618575
4	3012	1.61	184.00441510832
4	3568	1.71	185.39330402827
4	4124	1.81	186.78219294553
4	4680	1.91	188.17108186006
4	5244	2.01	189.5599707719
4	5800	2.11	190.94885968111
4	6356	2.21	192.33774858782
4	6912	2.31	193.72663749214
4	7468	2.41	195.11552639423
4	8024	2.51	196.50441529425
4	8580	2.61	197.89330419237
4	9136	2.71	199.28219308878
4	9692	2.81	200.67108198364
4	10248	2.91	202.05997087712
4	10812	3.01	203.44885976939
4	11368	3.11	204.83774866061
4	11924	3.21	206.22663755093
4	12480	3.31	207.61552644047
4	13036	3.41	209.00441532937
4	13592	3.51	210.39330421774
4	14148	3.61	211.78219310569
4	14704	3.71	213.17108199331
4	15260	3.81	214.55997088068
4	15816	3.91	215.94885976787
4	16380	4.01	217.33774865495
4	16936	4.11	218.72663754197
4	17492	4.21	220.11552642897
4	18048	4.31	221.50441531599
4	18604	4.41	222.89330420307
4	19160	4.51	224.28219309021
4	19716	4.61	225.67108197745
4	20272	4.71	227.05997086479
4	20828	4.81	228.44885975224
4	21384	4.91	229.83774863982
4	21949	5.01	231.22663752751
4	22506	5.11	232.61552778062
4	23063	5.21	234.00464453554
4	23620	5.31	235.39476138397
4	24177	5.41	236.78710295353
4	24734	5.51	238.18321922794
4	25291	5.61	239.58484506962
4	25848	5.71	240.99366596307
4	26405	5.81	242.41108394871
4	26962	5.91	243.83824931981
4	27527	6.01	245.2761057175
4	28084	6.11	246.72542725619
4	28641	6.21	248.1868489793
4	29198	6.31	249.66089184364
4	29755	6.41	251.14798321522
4	30312	6.51	252.64847365136
4	30869	6.61	254.16262090198
4	31426	6.71	255.69037853413
4	31983	6.81	257.23122003128
4	32540	6.91	258.78415661708
4	33105	7.01	260.34777357874
4	33662	7.11	261.92027380176
4	34219	7.21	263.49952736018
4	34776	7.31	265.08312599465
4	35333	7.41	266.66844176823
4	35890	7.51	268.25276175365
4	36447	7.61	269.83358814457
4	37004	7.71	271.40885379567
4	37561	7.81	272.97686292781
4	38118	7.91	274.53622441147
4	38683	8.01	276.08579703588
4	39240	8.11	277.62464461076
4	39797	8.21	279.15199913398
4	40354	8.31	280.66723057631
4	40911	8.41	282.16982209435
4	41468	8.51	283.65934969648
4	42025	8.61	285.13546556189
4	42582	8.71	286.5978843564
4	43139	8.81	288.04637200658
4	43696	8.91	289.48073649068
4	44261	9.01	290.900820284
4	44818	9.11	292.30649416143
4	45375	9.21	293.69765211333
4	45932	9.31	295.07420717492
4	46489	9.41	296.43608800476
4	47046	9.51	297.78323834084
4	47603	9.61	299.11585348354
4	48160	9.71	300.43479475418
4	48717	9.81	301.74155391516
4	49274	9.91	303.03814807952
4	49839	10.01	304.32701508678
4	50396	10.11	305.61091065376
4	50953	10.21	306.89280753973
4	51510	10.31	308.17563395861
4	52067	10.41	309.46191121954
4	52624	10.51	310.75371414837
4	53181	10.61	312.05274482499
4	53738	10.71	313.36039954771
4	54295	10.81	314.67782376749
4	54852	10.91	316.00595715308
4	55417	11.01	317.34557056014
4	55974	11.11	318.69729635878
4	56531	11.21	320.06165331278
4	57088	11.31	321.4390669891
4	57645	11.41	322.82988650088
4	58202	11.51	324.23439824249
4	58759	11.61	325.65283715706
4	59316	11.71	327.0853959798
4	59873	11.81	328.5322328207
4	60430	11.91	329.99346258561
4	60995	12.01	331.46888024477
4	61552	12.11	332.95764048221
4	62109	12.21	334.45831419659
4	62666	12.31	335.96897549728
4	63223	12.41	337.48729049554
4	63780	12.51	339.01060652776
4	64337	12.61	340.53604138575
4	64894	12.71	342.06070632038
4	65451	12.81	343.58205555722
4	66008	12.91	345.0979899915
4	66573	13.01	346.60678762621
4	67130	13.11	348.10703582403
4	67687	13.21	349.59757573033
4	68244	13.31	351.07745668067
4	68801	13.41	352.54589879913
4	69358	13.51	354.00226231579
4	69915	13.61	355.44602239649
4	70472	13.71	356.87674849444
4	71029	13.81	358.29408741129
4	71586	13.91	359.69774940139
4	72151	14.01	361.08749677238
4	72708	14.11	362.46313453373
4	73265	14.21	363.8245027253
4	73822	14.31	365.17147012406
4	74379	14.41	366.50392986249
4	74936	14.51	367.8219484784
4	75493	14.61	369.12614127786
4	76050	14.71	370.41775199546
4	76607	14.81	371.69856644854
4	77164	14.91	372.97081812133
4	77729	15.01	374.2370936159
4	78286	15.11	375.50023885062
4	78843	15.21	376.76319669927
4	79400	15.31	378.02867631505
4	79957	15.41	379.29891943372
4	80514	15.51	380.57576505938
4	81071	15.61	381.86072181594
4	81628	15.71	383.15502730042
4	82185	15.81	384.45969677349
4	82742	15.91	385.77556310245
4	83307	16.01	387.10330952863
4	83864	16.11	388.44349654785
4	84421	16.21	389.79658396193
4	84978	16.31	391.16294896851
4	85535	16.41	392.54290100102
4	86092	16.51	393.93669390264
4	86649	16.61	395.34453591323
4	87206	16.71	396.76659786196
4	87763	16.81	398.20301988828
4	88320	16.91	399.65391594087
4	88885	17.01	401.11918951574
4	89442	17.11	402.59814224263
4	89999	17.21	404.08946046029
4	90556	17.31	405.59130487189
4	91113	17.41	407.10140296539
4	91670	17.51	408.61714166621
4	92227	17.61	410.13565950694
4	92784	17.71	411.65403084251
4	93341	17.81	413.16960340874
4	93898	17.91	414.68018523381
4	94463	18.01	416.18397813734
4	95020	18.11	417.67950698513
4	95577	18.21	419.16556165334
4	96134	18.31	420.64114941894
4	96691	18.41	422.10545590328
4	97248	18.51	423.55781303221
4	97805	18.61	424.99767275224
4	98362	18.71	426.42458546864
4	98919	18.81	427.8381823571
4	99476	18.91	429.23816085326
4	100041	19.01	430.62427274895
4	100598	19.11	431.99631442701
4	101155	19.21	433.35411885046
4	101712	19.31	434.69754899079
4	102269	19.41	436.02649335563
4	102826	19.51	437.34103711089
4	103383	19.61	438.64184779355
4	103940	19.71	439.93021313778
4	104497	19.81	441.2079526033
4	105054	19.91	442.47732421676
4	105619	20.01	443.74093121739
4	106176	20.11	445.00162928345
4	106733	20.21	446.26235040691
4	107290	20.31	447.52576788389
4	107847	20.41	448.79409208541
4	108404	20.51	450.06913628556
4	108961	20.61	451.35238800066
4	109518	20.71	452.6450675122
4	110075	20.81	453.94817587602
4	110632	20.91	455.26253430659
4	111197	21.01	456.58881648578
4	111754	21.11	457.92757506739
4	112311	21.21	459.27926342001
4	112868	21.31	460.6442534638
4	113425	21.41	462.02285030283
4	113982	21.51	463.4153042287
4	114539	21.61	464.82182056771
4	115096	21.71	466.24256775892
4	115653	21.81	467.67768398106
4	116210	21.91	469.12728164011
4	116775	22.01	470.59127144389
4	117332	22.11	472.06897443266
4	117889	22.21	473.55909324619
4	118446	22.31	475.05980105743
4	119003	22.41	476.56883445742
4	119560	22.51	478.08358654959
4	120117	22.61	479.60119949946
4	120674	22.71	481.1187436597
4	121231	22.81	482.63355352527
4	121788	22.91	484.14342554136
4	122353	23.01	485.64655202551
4	122910	23.11	487.14145004851
4	123467	23.21	488.62690309188
4	124024	23.31	490.10191318678
4	124581	23.41	491.56566165115
4	125138	23.51	493.01747688056
4	125695	23.61	494.45680792545
4	126252	23.71	495.8832028153
4	126809	23.81	497.29629077686
4	127366	23.91	498.6957676469
4	127931	24.01	500.08138390566
4	128488	24.11	501.45293486003
4	129045	24.21	502.81025259033
4	129602	24.31	504.15319934398
4	130159	24.41	505.48166305342
4	130716	24.51	506.79573147921
4	131273	24.61	508.09607934199
4	131830	24.71	509.38400042964
4	132387	24.81	510.66131883507
4	132944	24.91	511.93029596972
4	133509	25.01	513.19353737276
4	134066	25.11	514.45390007834
4	134623	25.21	515.71431460369
4	135180	25.31	516.97744934489
4	135737	25.41	518.24551038603
4	136294	25.51	519.52030748446
4	136851	25.61	520.80332527154
4	137408	25.71	522.09578166207
4	137965	25.81	523.3986757704
4	138522	25.91	524.71282721828
4	139087	26.01	526.03890838103
4	139644	26.11	527.37747084058
4	140201	26.21	528.72896708626
4	140758	26.31	530.0937683169
4	141315	26.41	531.47217904482
4	141872	26.51	532.86444907621
4	142429	26.61	534.27078333914
4	142986	26.71	535.69134994601
4	143543	26.81	537.12628680752
4	144100	26.91	538.57570611683
4	144665	27.01	540.03951954497
4	145222	27.11	541.51705079816
4	145779	27.21	543.0070047628
4	146336	27.31	544.50755633134
4	146893	27.41	546.01644335105
4	147450	27.51	547.53105977901
4	148007	27.61	549.04854828408
4	148564	27.71	550.56597867183
4	149121	27.81	552.08068361907
4	149678	27.91	553.59045798031
4	150243	28.01	555.09349276821
4	150800	28.11	556.58830398307
4	151357	28.21	558.07367422827
4	151914	28.31	559.54860481456
4	152471	28.41	561.01227646891
4	153028	28.51	562.46401710208
4	153585	28.61	563.90327536681
4	154142	28.71	565.32959896631
4	154699	28.81	566.74261685968
4	155256	28.91	568.14202466414
4	155821	29.01	569.5275726798
4	156378	29.11	570.89905606578
4	156935	29.21	572.25630678121
4	157492	29.31	573.59918697406
4	158049	29.41	574.92758449778
4	158606	29.51	576.2415874704
4	159163	29.61	577.54187160191
4	159720	29.71	578.82973151392
4	160277	29.81	580.10699193746
4	160834	29.91	581.37591475014
4	161399	30.01	582.63910580796
4	161956	30.11	583.89942233184
4	162513	30.21	585.159794636
4	163070	30.31	586.42289044178
4	163627	30.41	587.69091524299
4	164184	30.51	588.96567831272
4	164741	30.61	590.24866388508
4	165298	30.71	591.541089549
4	165855	30.81	592.84395415148
4	166412	30.91	594.15807709495
4	166977	31.01	595.48413057483
4	167534	31.11	596.82266602546
4	168091	31.21	598.17413581509
4	168648	31.31	599.53891104321
4	169205	31.41	600.9172961407
4	169762	31.51	602.30954084687
4	170319	31.61	603.71585003497
4	170876	31.71	605.13639177241
4	171433	31.81	606.57130393301
4	171990	31.91	608.0206986806
4	172555	32.01	609.48448781886
4	173112	32.11	610.96199542118
4	173669	32.21	612.45192668335
4	174226	32.31	613.95245673463
4	174783	32.41	615.46132359529
4	175340	32.51	616.97592133999
4	175897	32.61	618.49339270688
4	176454	32.71	620.01080742621
4	177011	32.81	621.5254979244
4	177568	32.91	623.03525883688
4	178133	33.01	624.53828099662
4	178690	33.11	626.03308025651
4	179247	33.21	627.51843909897
4	179804	33.31	628.99335873554
4	180361	33.41	630.45701981182
4	180918	33.51	631.90875017179
4	181475	33.61	633.34799841342
4	182032	33.71	634.774312195
4	182589	33.81	636.18732043875
4	183146	33.91	637.58671873167
4	183711	34.01	638.97225734906
4	184268	34.11	640.34373142969
4	184825	34.21	641.70097291601
4	185382	34.31	643.04384394226
4	185939	34.41	644.37223235104
4	186496	34.51	645.68622630962
4	187053	34.61	646.98650166422
4	187610	34.71	648.27435315127
4	188167	34.81	649.55160558968
4	188724	34.91	650.82052092128
4	189289	35.01	652.08370504568
4	189846	35.11	653.34401520953
4	190403	35.21	654.60438169908
4	190960	35.31	655.86747214277
4	191517	35.41	657.13549195311
4	192074	35.51	658.41025033649
4	192631	35.61	659.69323147232
4	193188	35.71	660.98565290465
4	193745	35.81	662.28851344365
4	194302	35.91	663.60263246157
4	194867	36.01	664.92868212903
4	195424	36.11	666.26721386006
4	195981	36.21	667.61868000622
4	196538	36.31	668.98345165334
4	197095	36.41	670.36183322106
4	197652	36.51	671.75407443951
4	198209	36.61	673.16038017436
4	198766	36.71	674.58091848685
4	199323	36.81	676.01582724569
4	199880	36.91	677.4652186107
4	200445	37.01	678.92900440383
4	201002	37.11	680.406508749
4	201559	37.21	681.89643688465
4	202116	37.31	683.39696397262
4	202673	37.41	684.90582805702
4	203230	37.51	686.42042322871
4	203787	37.61	687.93789223537
4	204344	37.71	689.45530479689
4	204901	37.81	690.96999330518
4	205458	37.91	692.47975236554
4	206023	38.01	693.98277278616
4	206580	38.11	695.47757039963
4	207137	38.21	696.96292767174
4	207694	38.31	698.43784580034
4	208251	38.41	699.90150541983
4	208808	38.51	701.353234365
4	209365	38.61	702.79248122628
4	209922	38.71	704.21879365575
4	210479	38.81	705.63180057058
4	211036	38.91	707.0311975536
4	211601	39.01	708.41673487668
4	212158	39.11	709.7882076758
4	212715	39.21	711.1454478911
4	213272	39.31	712.48831765496
4	213829	39.41	713.81670480846
4	214386	39.51	715.13069752564
4	214943	39.61	716.4309716715
4	215500	39.71	717.71882199829
4	216057	39.81	718.99607333701
4	216614	39.91	720.26498763833
4	217179	40.01	721.52817080787
4	217736	40.11	722.78848009584
4	218293	40.21	724.04884578462
4	218850	40.31	725.31193548985
4	219407	40.41	726.57995461286
4	219964	40.51	727.85471235085
4	220521	40.61	729.13769287569
4	221078	40.71	730.43011372525
4	221635	40.81	731.73297370464
4	222192	40.91	733.04709218194
4	222757	41.01	734.37314132437
4	223314	41.11	735.71167254314
4	223871	41.21	737.06313818753
4	224428	41.31	738.42790934149
4	224985	41.41	739.8062904231
4	225542	41.51	741.19853116122
4	226099	41.61	742.60483642051
4	226656	41.71	744.02537426132
4	227213	41.81	745.46028255168
4	227770	41.91	746.90967345085
4	228335	42.01	748.37345878329
4	228892	42.11	749.8509626799
4	229449	42.21	751.34089038497
4	230006	42.31	752.84141706484
4	230563	42.41	754.3502807669
4	231120	42.51	755.86487558424
4	231677	42.61	757.38234426586
4	232234	42.71	758.89975653021
4	232791	42.81	760.41444476446
4	233348	42.91	761.92420356974
4	233913	43.01	763.42722375086
4	234470	43.11	764.92202113759
4	235027	43.21	766.40737819343
4	235584	43.31	767.88229611436
4	236141	43.41	769.34595553322
4	236698	43.51	770.79768428355
4	237255	43.61	772.23693095473
4	237812	43.71	773.66324319799
4	238369	43.81	775.07624992981
4	238926	43.91	776.47564673243
4	239491	44.01	777.86118387726
4	240048	44.11	779.2326564999
4	240605	44.21	780.58989654016
4	241162	44.31	781.93276613016
4	241719	44.41	783.26115311078
4	242276	44.51	784.575145657
4	242833	44.61	785.8754196364
4	243390	44.71	787.1632698034
4	243947	44.81	788.44052099067
4	244504	44.91	789.70943515011
4	245069	45.01	790.97261818815
4	245626	45.11	792.23292735549
4	246183	45.21	793.49329293399
4	246740	45.31	794.75638253753
4	247297	45.41	796.02440156587
4	247854	45.51	797.29915921498
4	248411	45.61	798.58213965568
4	248968	45.71	799.87456042498
4	249525	45.81	801.1774203273
4	250082	45.91	802.49153873015
4	250647	46.01	803.81758780027
4	251204	46.11	805.1561189485
4	251761	46.21	806.50758452379
4	252318	46.31	807.87235560983
4	252875	46.41	809.25073662449
4	253432	46.51	810.64297729647
4	253989	46.61	812.04928249026
4	254546	46.71	813.4698202661
4	255103	46.81	814.90472849195
4	255660	46.91	816.35411932697
4	256225	47.01	817.81790459596
4	256782	47.11	819.29540843079
4	257339	47.21	820.78533607656
4	257896	47.31	822.28586270023
4	258453	47.41	823.79472634965
4	259010	47.51	825.30932111818
4	259567	47.61	826.82678975503
4	260124	47.71	828.34420197846
4	260681	47.81	829.85889017497
4	261238	47.91	831.36864894513
4	261803	48.01	832.87166909326
4	262360	48.11	834.36646644876
4	262917	48.21	835.85182347482
4	263474	48.31	837.32674136715
4	264031	48.41	838.79040075838
4	264588	48.51	840.24212948188
4	265145	48.61	841.68137612687
4	265702	48.71	843.1076883445
4	266259	48.81	844.52069505111
4	266816	48.91	845.92009182888
4	267381	49.01	847.30562894917
4	267938	49.11	848.6771015475
4	268495	49.21	850.03434156365
4	269052	49.31	851.37721112971
4	269609	49.41	852.70559808652
4	270166	49.51	854.0195906092
4	270723	49.61	855.31986456567
4	271280	49.71	856.60771471067
4	271837	49.81	857.88496587708
4	272394	49.91	859.15388001698
4	272959	50.01	860.41706303691
4	273516	50.11	861.67737218764
4	274073	50.21	862.93773775095
4	274630	50.31	864.20082734048
4	275187	50.41	865.46884635579
4	275744	50.51	866.74360399266
4	276301	50.61	868.02658442177
4	276858	50.71	869.31900518002
4	277415	50.81	870.62186507173
4	277972	50.91	871.93598346432
4	278537	51.01	873.26203252448
4	279094	51.11	874.600563663
4	279651	51.21	875.95202922877
4	280208	51.31	877.31680030546
4	280765	51.41	878.6951813109
4	281322	51.51	880.08742197377
4	281879	51.61	881.49372715854
4	282436	51.71	882.91426492544
4	282993	51.81	884.3491731424
4	283550	51.91	885.79856396858
4	284115	52.01	887.26234922884
4	284672	52.11	888.73985305516
4	285229	52.21	890.22978069277
4	285786	52.31	891.73030730869
4	286343	52.41	893.23917095086
4	286900	52.51	894.75376571267
4	287457	52.61	896.27123434336
4	288014	52.71	897.78864656115
4	288571	52.81	899.30333475246
4	289128	52.91	900.81309351778
4	289693	53.01	902.31611366137
4	290250	53.11	903.81091101257
4	290807	53.21	905.29626803453
4	291364	53.31	906.77118592292
4	291921	53.41	908.23484531035
4	292478	53.51	909.68657403015
4	293035	53.61	911.12582067154
4	293592	53.71	912.55213288563
4	294149	53.81	913.96513958877
4	294706	53.91	915.36453636312
4	295271	54.01	916.75007348003
4	295828	54.11	918.12154607501
4	296385	54.21	919.47878608785
4	296942	54.31	920.82165565061
4	297499	54.41	922.15004260414
4	298056	54.51	923.46403512357
4	298613	54.61	924.76430907689
4	299170	54.71	926.05215921885
3	232	1.11	13.888889309806
3	788	1.21	13.888889299984
3	1344	1.31	13.888889284553
3	1900	1.41	13.888889264797
3	2456	1.51	13.888889241849
3	3012	1.61	13.888889216692
3	3568	1.71	13.888889190176
3	4124	1.81	13.888889163019
3	4680	1.91	13.888889135825
3	5244	2.01	13.888889109087
3	5800	2.11	13.888889083203
3	6356	2.21	13.888889058484
3	6912	2.31	13.888889035164
3	7468	2.41	13.888889013409
3	8024	2.51	13.88888899333
3	8580	2.61	13.888888974985
3	9136	2.71	13.888888958391
3	9692	2.81	13.888888943532
3	10248	2.91	13.888888930362
3	10812	3.01	13.888888918814
3	11368	3.11	13.888888908804
3	11924	3.21	13.888888900236
3	12480	3.31	13.888888893003
3	13036	3.41	13.888888886995
3	13592	3.51	13.888888882101
3	14148	3.61	13.888888878208
3	14704	3.71	13.888888875206
3	15260	3.81	13.888888872989
3	15816	3.91	13.888888871455
3	16380	4.01	13.888888870509
3	16936	4.11	13.888888870063
3	17492	4.21	13.888888870035
3	18048	4.31	13.88888887035
3	18604	4.41	13.888888870941
3	19160	4.51	13.888888871748
3	19716	4.61	13.888888872717
3	20272	4.71	13.888888873802
3	20828	4.81	13.888888874963
3	21384	4.91	13.888888876165
3	21949	5.01	13.888888877379
3	22506	5.11	13.88895714287
3	23063	5.21	13.8931707169
3	23620	5.31	13.906886981158
3	24177	5.41	13.934167403487
3	24734	5.51	13.977833057683
3	25291	5.61	14.039174898244
3	25848	5.71	14.116438827352
3	26405	5.81	14.206769915256
3	26962	5.91	14.307820624663
3	27527	6.01	14.417665157344
3	28084	6.11	14.534723687999
3	28641	6.21	14.657700209627
3	29198	6.31	14.785531545087
3	29755	6.41	14.917345518821
3	30312	6.51	15.052425059448
3	30869	6.61	15.189500093972
3	31426	6.71	15.324463010101
3	31983	6.81	15.452496243768
3	32540	6.91	15.569092845265
3	33105	7.01	15.670136008044
3	33662	7.11	15.751967163808
3	34219	7.21	15.811442461837
3	34776	7.31	15.845977552212
3	35333	7.41	15.853603639796
3	35890	7.51	15.834314677718
3	36447	7.61	15.791543255453
3	37004	7.71	15.729508036896
3	37561	7.81	15.651669795801
3	38118	7.91	15.560867572035
3	38683	8.01	15.459430367125
3	39240	8.11	15.349268773515
3	39797	8.21	15.231950142466
3	40354	8.31	15.108760247923
3	40911	8.41	14.980753872353
3	41468	8.51	14.848796304763
3	42025	8.61	14.713597383517
3	42582	8.71	14.575739423308
3	43139	8.81	14.435700125008
3	43696	8.91	14.293871369713
3	44261	9.01	14.150574636415
3	44818	9.11	14.006073649857
3	45375	9.21	13.860584756185
3	45932	9.31	13.714285434593
3	46489	9.41	13.567321279832
3	47046	9.51	13.419909418317
3	47603	9.61	13.276568052228
3	48160	9.71	13.144199549998
3	48717	9.81	13.028740637906
3	49274	9.91	12.935077207518
3	49839	10.01	12.867053163966
3	50396	10.11	12.827492798447
3	50953	10.21	12.818184012284
3	51510	10.31	12.836987312871
3	52067	10.41	12.879360323559
3	52624	10.51	12.941068705856
3	53181	10.61	13.01863882738
3	53738	10.71	13.109221099712
3	54295	10.81	13.210477867837
3	54852	10.91	13.320491440438
3	55417	11.01	13.437688642703
3	55974	11.11	13.56077892335
3	56531	11.21	13.688703580829
3	57088	11.31	13.820594111122
3	57645	11.41	13.955738038437
3	58202	11.51	14.093550884467
3	58759	11.61	14.233553173427
3	59316	11.71	14.375351568173
3	59873	11.81	14.518623395246
3	60430	11.91	14.66269730263
3	60995	12.01	14.802538408274
3	61552	12.11	14.931758497807
3	62109	12.21	15.044820373205
3	62666	12.31	15.137065146099
3	63223	12.41	15.204725281664
3	63780	12.51	15.244924342721
3	64337	12.61	15.255706566207
3	64894	12.71	15.238438484058
3	65451	12.81	15.197324887205
3	66008	12.91	15.136649662907
3	66573	13.01	15.05992709079
3	67130	13.11	14.970040104174
3	67687	13.21	14.869353712503
3	68244	13.31	14.759808047257
3	68801	13.41	14.642994691995
3	69358	13.51	14.520219299584
3	69915	13.61	14.392552960135
3	70472	13.71	14.260874340597
3	71029	13.81	14.125904253911
3	71586	13.91	13.988234017746
3	72151	14.01	13.848348718545
3	72708	14.11	13.706646296149
3	73265	14.21	13.56345319983
3	73822	14.31	13.419037231692
3	74379	14.41	13.273657135565
3	74936	14.51	13.130441982788
3	75493	14.61	12.995670307401
3	76050	14.71	12.875370078417
3	76607	14.81	12.774633040977
3	77164	14.91	12.697604313193
3	77729	15.01	12.647485799739
3	78286	15.11	12.626530819682
3	78843	15.21	12.634779968798
3	79400	15.31	12.66849489927
3	79957	15.41	12.723100640181
3	80514	15.51	12.79484412192
3	81071	15.61	12.88064652021
3	81628	15.71	12.977982126792
3	82185	15.81	13.084778981187
3	82742	15.91	13.199337354141
3	83307	16.01	13.320262875649
3	83864	16.11	13.446411676648
3	84421	16.21	13.576845386097
3	84978	16.31	13.71079421291
3	85535	16.41	13.847626660274
3	86092	16.51	13.986824680856
3	86649	16.61	14.127963295405
3	87206	16.71	14.270693872916
3	87763	16.81	14.414730414535
3	88320	16.91	14.559787728906
3	88885	17.01	14.702082559026
3	89442	17.11	14.835117319103
3	89999	17.21	14.95304189545
3	90556	17.31	15.050921902539
3	91113	17.41	15.124749945874
3	91670	17.51	15.171443265846
3	92227	17.61	15.188857753955
3	92784	17.71	15.177461901473
3	93341	17.81	15.141165578244
3	93898	17.91	15.084442196173
3	94463	18.01	15.010961511109
3	95020	18.11	14.923734001024
3	95577	18.21	14.825229306406
3	96134	18.31	14.717473392626
3	96691	18.41	14.602128256938
3	97248	18.51	14.480557315958
3	97805	18.61	14.353879046192
3	98362	18.71	14.223010987939
3	98919	18.81	14.088705843826
3	99476	18.91	13.951581092168
3	100041	19.01	13.812143280257
3	100598	19.11	13.670807953298
3	101155	19.21	13.527916003097
3	101712	19.31	13.383747079665
3	102269	19.41	13.23857652977
3	102826	19.51	13.095945007457
3	103383	19.61	12.962270845178
3	103940	19.71	12.843470007216
3	104497	19.81	12.744535147797
3	105054	19.91	12.669524665226
3	105619	20.01	12.621565448378
3	106176	20.11	12.602842059212
3	106733	20.21	12.613074483492
3	107290	20.31	12.648416390373
3	107847	20.41	12.704356818615
3	108404	20.51	12.777195208837
3	108961	20.61	12.863895813439
3	109518	20.71	12.961968262042
3	110075	20.81	13.069369583537
3	110632	20.91	13.184423830048
3	111197	21.01	13.305756140585
3	111754	21.11	13.432238650273
3	112311	21.21	13.562946117079
3	112868	21.31	13.697119520272
3	113425	21.41	13.834136198489
3	113982	21.51	13.973485352538
3	114539	21.61	14.114747949169
3	115096	21.71	14.25758023517
3	115653	21.81	14.401700213177
3	116210	21.91	14.546829114103
3	116775	22.01	14.689336934087
3	117332	22.11	14.822775023755
3	117889	22.21	14.941251840502
3	118446	22.31	15.039796341815
3	119003	22.41	15.114369048335
3	119560	22.51	15.161859441787
3	120117	22.61	15.180097968285
3	120674	22.71	15.169434538294
3	121231	22.81	15.13373905661
3	121788	22.91	15.07750857388
3	122353	23.01	15.004432237952
3	122910	23.11	14.917536434993
3	123467	23.21	14.819303855751
3	124024	23.31	14.711771171359
3	124581	23.41	14.596609161518
3	125138	23.51	14.475188447516
3	125695	23.61	14.348633416197
3	126252	23.71	14.217866456394
3	126809	23.81	14.083644248221
3	127366	23.91	13.946587532923
3	127931	24.01	13.807205534522
3	128488	24.11	13.665915994083
3	129045	24.21	13.523061604774
3	129602	24.31	13.378923494356
3	130159	24.41	13.233779163163
3	130716	24.51	13.091225460604
3	131273	24.61	12.957699786749
3	131830	24.71	12.839102746868
3	132387	24.81	12.74041340342
3	132944	24.91	12.665678256479
3	133509	25.01	12.618013899389
3	134066	25.11	12.599595455496
3	134623	25.21	12.61009895213
3	135180	25.31	12.645663232756
3	135737	25.41	12.701786084922
3	136294	25.51	12.774774126299
3	136851	25.61	12.861597496972
3	137408	25.71	12.959770656513
3	137965	25.81	13.067254596054
3	138522	25.91	13.182376618139
3	139087	26.01	13.303764528253
3	139644	26.11	13.43029264896
3	140201	26.21	13.561037532686
3	140758	26.31	13.695241630788
3	141315	26.41	13.83228348952
3	141872	26.51	13.971653300362
3	142429	26.61	14.112932842758
3	142986	26.71	14.255779030189
3	143543	26.81	14.39991041221
3	144100	26.91	14.545049017674
3	144665	27.01	14.687585693517
3	145222	27.11	14.821078865042
3	145779	27.21	14.939631290159
3	146336	27.31	15.03826688263
3	146893	27.41	15.112941747789
3	147450	27.51	15.160541546767
3	148007	27.61	15.17889322306
3	148564	27.71	15.168330374919
3	149121	27.81	15.132717405387
3	149678	27.91	15.076554611359
3	150243	28.01	15.003533803743
3	150800	28.11	14.91668355334
3	151357	28.21	14.818488343061
3	151914	28.31	14.710986314233
3	152471	28.41	14.595849452632
3	153028	28.51	14.474449368947
3	153585	28.61	14.347911261671
3	154142	28.71	14.21715818548
3	154699	28.81	14.082947366705
3	155256	28.91	13.945899994678
3	155821	29.01	13.806525661016
3	156378	29.11	13.665242408331
3	156935	29.21	13.522393177171
3	157492	29.31	13.378259298231
3	158049	29.41	13.23311856794
3	158606	29.51	13.090575573438
3	159163	29.61	12.957070340203
3	159720	29.71	12.838501358414
3	160277	29.81	12.739845818791
3	160834	29.91	12.665148582879
3	161399	30.01	12.617524826186
3	161956	30.11	12.59914837223
3	162513	30.21	12.609689194843
3	163070	30.31	12.645284095771
3	163627	30.41	12.701432067251
3	164184	30.51	12.774440715214
3	164741	30.61	12.861280990466
3	165298	30.71	12.959468017648
3	165855	30.81	13.066963333485
3	166412	30.91	13.182094688096
3	166977	31.01	13.303490254132
3	167534	31.11	13.43002465536
3	168091	31.21	13.560774691303
3	168648	31.31	13.694983016015
3	169205	31.41	13.832028342041
3	169762	31.51	13.971400997271
3	170319	31.61	14.112682873057
3	170876	31.71	14.255530974679
3	171433	31.81	14.399663927005
3	171990	31.91	14.544803868766
3	172555	32.01	14.687344518393
3	173112	32.11	14.82084527549
3	173669	32.21	14.939408113045
3	174226	32.31	15.038056250216
3	174783	32.41	15.112745184271
3	175340	32.51	15.16036005018
3	175897	32.61	15.178727309066
3	176454	32.71	15.16817831271
3	177011	32.81	15.132576706465
3	177568	32.91	15.07642323429
3	178133	33.01	15.003410073841
3	178690	33.11	14.91656609678
3	179247	33.21	14.818376032824
3	179804	33.31	14.710878225775
3	180361	33.41	14.595744827503
3	180918	33.51	14.474347584953
3	181475	33.61	14.347811808398
3	182032	33.71	14.21706064421
3	182589	33.81	14.082851393943
3	183146	33.91	13.94580530864
3	183711	34.01	13.806432030538
3	184268	34.11	13.665149643781
3	184825	34.21	13.522301122983
3	185382	34.31	13.378167826789
3	185939	34.41	13.233027592401
3	186496	34.51	13.090486072583
3	187053	34.61	12.956983654378
3	187610	34.71	12.838418536677
3	188167	34.81	12.739767652433
3	188724	34.91	12.665075637532
3	189289	35.01	12.617457472225
3	189846	35.11	12.59908680102
3	190403	35.21	12.609632764073
3	190960	35.31	12.645231881954
3	191517	35.41	12.701383312803
3	192074	35.51	12.774394798654
3	192631	35.61	12.861237401962
3	193188	35.71	12.959426338962
3	193745	35.81	13.066923221514
3	194302	35.91	13.182055861377
3	194867	36.01	13.303452481767
3	195424	36.11	13.429987747933
3	195981	36.21	13.560738493426
3	196538	36.31	13.694947400217
3	197095	36.41	13.83199320375
3	197652	36.51	13.971366250702
3	198209	36.61	14.112648447836
3	198766	36.71	14.255496813076
3	199323	36.81	14.39962998166
3	199880	36.91	14.544770107452
3	200445	37.01	14.68731130434
3	201002	37.11	14.820813106103
3	201559	37.21	14.939377377634
3	202116	37.31	15.038027242431
3	202673	37.41	15.11271811402
3	203230	37.51	15.160335054909
3	203787	37.61	15.178704459793
3	204344	37.71	15.168157371071
3	204901	37.81	15.13255732975
3	205458	37.91	15.076405141359
3	206023	38.01	15.003393034059
3	206580	38.11	14.916549920947
3	207137	38.21	14.81836056573
3	207694	38.31	14.710863340094
3	208251	38.41	14.595730418783
3	208808	38.51	14.474333567508
3	209365	38.61	14.347798111935
3	209922	38.71	14.217047211063
3	210479	38.81	14.082838176806
3	211036	38.91	13.945792268708
3	211601	39.01	13.806419135975
3	212158	39.11	13.665136868471
3	212715	39.21	13.522288445503
3	213272	39.31	13.378155229563
3	213829	39.41	13.23301506347
3	214386	39.51	13.090473746742
3	214943	39.61	12.956971716216
3	215500	39.71	12.838407130668
3	216057	39.81	12.739756887551
3	216614	39.91	12.665065591676
3	217179	40.01	12.617448196401
3	217736	40.11	12.599078321582
3	218293	40.21	12.609624992565
3	218850	40.31	12.645224691194
[...]
36	23866	5.362211766262	0.099999601041
36	24423	5.462211371196	0.099999604934
36	24980	5.562210980072	0.099999608876
36	25537	5.662210592951	0.099999612879
36	26094	5.762210209905	0.099999616954
36	26651	5.862209831008	0.099999621103
36	27208	5.962222456338	0.10001262533
36	27773	6.062222085973	0.099999629635
36	28330	6.162221719993	0.09999963402
36	28887	6.262221358477	0.099999638484
36	29444	6.362221001503	0.099999643026
36	30001	6.462220649142	0.099999647639
36	30558	6.562220301463	0.099999652321
36	31115	6.662219958532	0.099999657069
36	31672	6.762219620407	0.099999661875
36	32229	6.862219287141	0.099999666734
36	32786	6.96221895877	0.099999671629
36	33351	7.062218635316	0.099999676546
36	33908	7.162218316796	0.09999968148
36	34465	7.262218003196	0.0999996864
36	35022	7.362217694496	0.0999996913
36	35579	7.462217390659	0.099999696163
36	36136	7.562217091627	0.099999700968
36	36693	7.662216797334	0.099999705707
36	37250	7.762216507706	0.099999710372
36	37807	7.862216222664	0.099999714958
36	38364	7.962215942124	0.09999971946
36	38929	8.062215666009	0.099999723885
36	39486	8.162215394237	0.099999728228
36	40043	8.262215126733	0.099999732496
36	40600	8.362214863423	0.09999973669
36	41157	8.462214604235	0.099999740812
36	41714	8.562214349106	0.099999744871
36	42271	8.662214097969	0.099999748863
36	42828	8.762213850765	0.099999752796
36	43385	8.862213607435	0.09999975667
36	43942	8.962213367922	0.099999760487
36	44507	9.062213132171	0.099999764249
36	45064	9.162212900127	0.099999767956
36	45621	9.262212671737	0.09999977161
36	46178	9.362212446944	0.099999775207
36	46735	9.462212225692	0.099999778748
36	47292	9.562212007924	0.099999782232
36	47849	9.662211793588	0.099999785664
36	48406	9.762211582634	0.099999789046
36	48963	9.862211375023	0.099999792389
36	49520	9.962211170728	0.099999795705
36	50085	10.062210969737	0.099999799009
36	50642	10.162210772052	0.099999802315
36	51199	10.262210577695	0.099999805643
36	51756	10.362210386698	0.099999809003
36	52313	10.462210199102	0.099999812404
36	52870	10.562210014955	0.099999815853
36	53427	10.662209834308	0.099999819353
36	53984	10.762209657211	0.099999822903
36	54541	10.862222483713	0.100012826502
36	55098	10.962222313862	0.099999830149
36	55663	11.062222147701	0.099999833839
36	56220	11.162221985271	0.09999983757
36	56777	11.262221826609	0.099999841338
36	57334	11.362221671742	0.099999845133
36	57891	11.462221520701	0.099999848959
36	58448	11.562221373513	0.099999852812
36	59005	11.662221230198	0.099999856685
36	59562	11.762221090779	0.099999860581
36	60119	11.862220955272	0.099999864493
36	60676	11.962220823696	0.099999868424
36	61241	12.062220696065	0.099999872369
36	61798	12.162220572382	0.099999876317
36	62355	12.262220452646	0.099999880264
36	62912	12.362220336836	0.09999988419
36	63469	12.46222022492	0.099999888084
36	64026	12.56222011685	0.09999989193
36	64583	12.662220012563	0.099999895713
36	65140	12.762219911983	0.09999989942
36	65697	12.862219815017	0.099999903034
36	66254	12.962219721577	0.09999990656
36	66819	13.062219631565	0.099999909988
36	67376	13.162219544883	0.099999913318
36	67933	13.262219461437	0.099999916554
36	68490	13.362219381135	0.099999919698
36	69047	13.462219303884	0.099999922749
36	69604	13.562219229601	0.099999925717
36	70161	13.662219158204	0.099999928603
36	70718	13.762219089617	0.099999931413
36	71275	13.862219023767	0.09999993415
36	71832	13.962218960582	0.099999936815
36	72397	14.062218899996	0.099999939414
36	72954	14.162218841944	0.099999941948
36	73511	14.262218786361	0.099999944417
36	74068	14.362218733182	0.099999946821
36	74625	14.462218682349	0.099999949167
36	75182	14.562218633801	0.099999951452
36	75739	14.662218587482	0.099999953681
36	76296	14.762218543349	0.099999955867
36	76853	14.862218501367	0.099999958018
36	77410	14.962218461519	0.099999960152
36	77975	15.0622184238	0.099999962281
36	78532	15.162218388223	0.099999964423
36	79089	15.262218354814	0.099999966591
36	79646	15.362218323612	0.099999968798
36	80203	15.462218294665	0.099999971053
36	80760	15.562218268018	0.099999973353
36	81317	15.662218243722	0.099999975704
36	81874	15.762218221829	0.099999978107
36	82431	15.86221820239	0.099999980561
36	82988	15.962218185445	0.099999983055
36	83553	16.062218171037	0.099999985592
36	84110	16.162218159206	0.099999988169
36	84667	16.262218149984	0.099999990778
36	85224	16.3622181434	0.099999993416
36	85781	16.462218139483	0.099999996083
36	86338	16.562218138255	0.099999998772
36	86895	16.662218139741	0.100000001486
36	87452	16.76221814396	0.100000004219
36	88009	16.862218150932	0.100000006972
36	88566	16.962218160676	0.100000009744
36	89131	17.062218173211	0.100000012535
36	89688	17.162218188543	0.100000015332
36	90245	17.262218206675	0.100000018132
36	90802	17.362218227597	0.100000020922
36	91359	17.462218251281	0.100000023684
36	91916	17.562218277685	0.100000026404
36	92473	17.662218306756	0.100000029071
36	93030	17.762218338421	0.100000031665
36	93587	17.862218372599	0.100000034178
36	94144	17.962218409203	0.100000036604
36	94709	18.062218448143	0.10000003894
36	95266	18.162218489323	0.10000004118
36	95823	18.262218532656	0.100000043333
36	96380	18.36221857805	0.100000045394
36	96937	18.462218625424	0.100000047374
36	97494	18.562218674691	0.100000049267
36	98051	18.662218725778	0.100000051087
36	98608	18.762218778609	0.100000052831
36	99165	18.862218833116	0.100000054507
36	99722	18.962218889234	0.100000056118
36	100287	19.062218946901	0.100000057667
36	100844	19.162219006053	0.100000059152
36	101401	19.262219066632	0.100000060579
36	101958	19.362219128581	0.100000061949
36	102515	19.462219191843	0.100000063262
36	103072	19.562219256361	0.100000064518
36	103629	19.66221932209	0.100000065729
36	104186	19.76221938899	0.1000000669
36	104743	19.862219457036	0.100000068046
36	105300	19.962219526214	0.100000069178
36	105865	20.062219596528	0.100000070314
36	106422	20.162219667996	0.100000071468
36	106979	20.262219740654	0.100000072658
36	107536	20.362219814544	0.10000007389
36	108093	20.462219889719	0.100000075175
36	108650	20.562219966234	0.100000076515
36	109207	20.662220044146	0.100000077912
36	109764	20.762220123512	0.100000079366
36	110321	20.862220204382	0.10000008087
36	110878	20.962220286811	0.100000082429
36	111443	21.062220370845	0.100000084034
36	112000	21.162220456525	0.10000008568
36	112557	21.262220543893	0.100000087368
36	113114	21.362220632983	0.10000008909
36	113671	21.462220723828	0.100000090845
36	114228	21.562220816456	0.100000092628
36	114785	21.662220910896	0.10000009444
36	115342	21.762221007177	0.100000096281
36	115899	21.862221105322	0.100000098145
36	116456	21.962221205354	0.100000100032
36	117021	22.062221307297	0.100000101943
36	117578	22.162221411168	0.100000103871
36	118135	22.262221516973	0.100000105805
36	118692	22.362221624706	0.100000107733
36	119249	22.462221734347	0.100000109641
36	119806	22.562221845863	0.100000111516
36	120363	22.662221959202	0.100000113339
36	120920	22.762222074301	0.100000115099
36	121477	22.862222191086	0.100000116785
36	122034	22.962222309472	0.100000118386
36	122599	23.062222429375	0.100000119903
36	123156	23.16220955071	0.099987121335
36	123713	23.26220967339	0.10000012268
36	124270	23.362209797331	0.100000123941
36	124827	23.462209922455	0.100000125124
36	125384	23.562210048685	0.10000012623
36	125941	23.662210175951	0.100000127266
36	126498	23.762210304186	0.100000128235
36	127055	23.862210433324	0.100000129138
36	127612	23.962210563303	0.100000129979
36	128177	24.062210694068	0.100000130765
36	128734	24.162210825564	0.100000131496
36	129291	24.262210957738	0.100000132174
36	129848	24.362211090533	0.100000132795
36	130405	24.462211223903	0.10000013337
36	130962	24.562211357796	0.100000133893
36	131519	24.66221149217	0.100000134374
36	132076	24.762211626991	0.100000134821
36	132633	24.862211762238	0.100000135247
36	133190	24.962211897907	0.100000135669
36	133755	25.062212034004	0.100000136097
36	134312	25.162212170555	0.100000136551
36	134869	25.262212307599	0.100000137044
36	135426	25.362212445186	0.100000137587
36	135983	25.462212583374	0.100000138188
36	136540	25.562212722221	0.100000138847
36	137097	25.662212861793	0.100000139572
36	137654	25.762213002149	0.100000140356
36	138211	25.862213143348	0.100000141199
36	138768	25.962213285446	0.100000142098
36	139333	26.062213428494	0.100000143048
36	139890	26.16221357254	0.100000144046
36	140447	26.262213717632	0.100000145092
36	141004	26.362213863809	0.100000146177
36	141561	26.462214011107	0.100000147298
36	142118	26.562214159563	0.100000148456
36	142675	26.662214309207	0.100000149644
36	143232	26.762214460072	0.100000150865
36	143789	26.862214612189	0.100000152117
36	144346	26.962214765587	0.100000153398
36	144911	27.062214920293	0.100000154706
36	145468	27.162215076329	0.100000156036
36	146025	27.26221523371	0.100000157381
36	146582	27.362215392429	0.100000158719
36	147139	27.462215552475	0.100000160046
36	147696	27.562215713817	0.100000161342
36	148253	27.662215876412	0.100000162595
36	148810	27.762216040199	0.100000163787
36	149367	27.862216205109	0.10000016491
36	149924	27.962216371064	0.100000165955
36	150489	28.062216537984	0.10000016692
36	151046	28.162216705787	0.100000167803
36	151603	28.26221687439	0.100000168603
36	152160	28.36221704372	0.10000016933
36	152717	28.462217213696	0.100000169976
36	153274	28.562217384252	0.100000170556
36	153831	28.662217555319	0.100000171067
36	154388	28.762217726832	0.100000171513
36	154945	28.862217898735	0.100000171903
36	155502	28.962218070971	0.100000172236
36	156067	29.062218243487	0.100000172516
36	156624	29.162218416231	0.100000172744
36	157181	29.262218589157	0.100000172926
36	157738	29.362218762216	0.100000173059
36	158295	29.46221893536	0.100000173144
36	158852	29.562219108547	0.100000173187
36	159409	29.662219281733	0.100000173186
36	159966	29.762219454893	0.10000017316
36	160523	29.862219628011	0.100000173118
36	161080	29.962219801086	0.100000173075
36	161645	30.062219974129	0.100000173043
36	162202	30.162220147171	0.100000173042
36	162759	30.262220320254	0.100000173083
36	163316	30.362220493433	0.100000173179
36	163873	30.462220666768	0.100000173335
36	164430	30.562220840326	0.100000173558
36	164987	30.662221014172	0.100000173846
36	165544	30.762221188373	0.100000174201
36	166101	30.86222136299	0.100000174617
36	166658	30.962221538085	0.100000175095
36	167223	31.062221713713	0.100000175628
36	167780	31.162221889927	0.100000176214
36	168337	31.262222066776	0.100000176849
36	168894	31.362222244305	0.100000177529
36	169451	31.462222422555	0.10000017825
36	170008	31.562209601565	0.09998717901
36	170565	31.662209781371	0.100000179806
36	171122	31.76220996201	0.100000180639
36	171679	31.862210143515	0.100000181505
36	172236	31.962210325921	0.100000182406
36	172801	32.06221050926	0.100000183339
36	173358	32.162210693555	0.100000184295
36	173915	32.262210878823	0.100000185268
36	174472	32.362211065066	0.100000186243
36	175029	32.462211252275	0.100000187209
36	175586	32.562211440423	0.100000188148
36	176143	32.662211629468	0.100000189045
36	176700	32.762211819355	0.100000189887
36	177257	32.86221201002	0.100000190665
36	177814	32.962212201391	0.100000191371
36	178379	33.062212393388	0.100000191997
36	178936	33.162212585933	0.100000192545
36	179493	33.26221277894	0.100000193007
36	180050	33.362212972331	0.100000193391
36	180607	33.462213166023	0.100000193692
36	181164	33.562213359934	0.100000193911
36	181721	33.662213553982	0.100000194048
36	182278	33.76221374808	0.100000194098
36	182835	33.862213942151	0.100000194071
36	183392	33.962214136108	0.100000193957
36	183957	34.062214329866	0.100000193758
36	184514	34.162214523342	0.100000193476
36	185071	34.262214716447	0.100000193105
36	185628	34.362214909092	0.100000192645
36	186185	34.462215101187	0.100000192095
36	186742	34.562215292643	0.100000191456
36	187299	34.662215483377	0.100000190734
36	187856	34.762215673315	0.100000189938
36	188413	34.86221586239	0.100000189075
36	188970	34.962216050558	0.100000188168
36	189535	35.062216237786	0.100000187228
36	190092	35.162216424061	0.100000186275
36	190649	35.262216609389	0.100000185328
36	191206	35.362216793791	0.100000184402
36	191763	35.462216977302	0.100000183511
36	192320	35.562217159965	0.100000182663
36	192877	35.662217341838	0.100000181873
36	193434	35.762217522977	0.100000181139
36	193991	35.862217703451	0.100000180474
36	194548	35.962217883331	0.10000017988
36	195113	36.062218062694	0.100000179363
36	195670	36.162218241617	0.100000178923
36	196227	36.262218420181	0.100000178564
36	196784	36.362218598471	0.10000017829
36	197341	36.462218776572	0.100000178101
36	197898	36.562218954574	0.100000178002
36	198455	36.662219132565	0.100000177991
36	199012	36.762219310634	0.100000178069
36	199569	36.862219488873	0.100000178239
36	200126	36.962219667375	0.100000178502
36	200691	37.062219846228	0.100000178853
36	201248	37.162220025517	0.100000179289
36	201805	37.262220205314	0.100000179797
36	202362	37.362220385679	0.100000180365
36	202919	37.462220566659	0.10000018098
36	203476	37.562220748276	0.100000181617
36	204033	37.662220930541	0.100000182265
36	204590	37.762221113438	0.100000182897
36	205147	37.862221296941	0.100000183503
36	205704	37.962221481004	0.100000184063
36	206269	38.062221665576	0.100000184572
36	206826	38.162221850591	0.100000185015
36	207383	38.262222035981	0.10000018539
36	207940	38.362222221671	0.10000018569
36	208497	38.462222407578	0.100000185907
36	209054	38.562209593615	0.099987186037
36	209611	38.662209779692	0.100000186077
36	210168	38.762209965718	0.100000186026
36	210725	38.862210151599	0.100000185881
36	211282	38.962210337241	0.100000185642
36	211847	39.062210522545	0.100000185304
36	212404	39.162210707409	0.100000184864
36	212961	39.262210891737	0.100000184328
36	213518	39.362211075424	0.100000183687
36	214075	39.462211258373	0.100000182949
36	214632	39.562211440483	0.10000018211
36	215189	39.66221162166	0.100000181177
36	215746	39.762211801821	0.100000180161
36	216303	39.862211980897	0.100000179076
36	216860	39.962212158835	0.100000177938
36	217425	40.062212335598	0.100000176763
36	217982	40.162212511171	0.100000175573
36	218539	40.262212685559	0.100000174388
36	219096	40.36221285878	0.100000173221
36	219653	40.462213030864	0.100000172084
36	220210	40.562213201859	0.100000170995
36	220767	40.66221337182	0.100000169961
36	221324	40.762213540805	0.100000168985
36	221881	40.862213708885	0.10000016808
36	222438	40.962213876131	0.100000167246
36	223003	41.062214042618	0.100000166487
36	223560	41.162214208426	0.100000165808
36	224117	41.262214373641	0.100000165215
36	224674	41.362214538345	0.100000164704
36	225231	41.462214702629	0.100000164284
36	225788	41.562214866577	0.100000163948
36	226345	41.662215030281	0.100000163704
36	226902	41.762215193833	0.100000163552
36	227459	41.862215357324	0.100000163491
36	228016	41.962215520846	0.100000163522
36	228581	42.062215684489	0.100000163643
36	229138	42.162215848339	0.10000016385
36	229695	42.262216012471	0.100000164132
36	230252	42.362216176944	0.100000164473
36	230809	42.462216341802	0.100000164858
36	231366	42.562216507074	0.100000165272
36	231923	42.662216672767	0.100000165693
36	232480	42.762216838867	0.1000001661
36	233037	42.862217005347	0.10000016648
36	233594	42.962217172166	0.100000166819
36	234159	43.06221733927	0.100000167104
36	234716	43.162217506596	0.100000167326
36	235273	43.262217674076	0.10000016748
36	235830	43.362217841635	0.100000167559
36	236387	43.462218009191	0.100000167556
36	236944	43.56221817666	0.100000167469
36	237501	43.662218343954	0.100000167294
36	238058	43.762218510978	0.100000167024
36	238615	43.862218677645	0.100000166667
36	239172	43.962218843855	0.10000016621
36	239737	44.062219009514	0.100000165659
36	240294	44.162219174525	0.100000165011
36	240851	44.262219338786	0.100000164261
36	241408	44.3622195022	0.100000163414
36	241965	44.462219664665	0.100000162465
36	242522	44.562219826084	0.100000161419
36	243079	44.662219986366	0.100000160282
36	243636	44.762220145426	0.10000015906
36	244193	44.862220303198	0.100000157772
36	244750	44.96222045963	0.100000156432
36	245315	45.062220614687	0.100000155057
36	245872	45.162220768357	0.10000015367
36	246429	45.262220920641	0.100000152284
36	246986	45.362221071561	0.10000015092
36	247543	45.462221221154	0.100000149593
36	248100	45.562221369466	0.100000148312
36	248657	45.662221516549	0.100000147083
36	249214	45.762221662467	0.100000145918
36	249771	45.862221807291	0.100000144824
36	250328	45.962221951092	0.100000143801
36	250893	46.06222209395	0.100000142858
36	251450	46.162222235946	0.100000141996
36	252007	46.262222377165	0.100000141219
36	252564	46.362209517694	0.099987140529
36	253121	46.462209657622	0.100000139928
36	253678	46.562209797036	0.100000139414
36	254235	46.662209936031	0.100000138995
36	254792	46.762210074697	0.100000138666
36	255349	46.862210213129	0.100000138432
36	255906	46.962210351421	0.100000138292
36	256471	47.062210489664	0.100000138243
36	257028	47.162210627943	0.100000138279
36	257585	47.262210766336	0.100000138393
36	258142	47.362210904905	0.100000138569
36	258699	47.462211043694	0.100000138789
36	259256	47.562211182734	0.10000013904
36	259813	47.662211322032	0.100000139298
36	260370	47.762211461578	0.100000139546
36	260927	47.862211601345	0.100000139767
36	261484	47.962211741292	0.100000139947
36	262049	48.062211881368	0.100000140076
36	262606	48.162212021513	0.100000140145
36	263163	48.262212161656	0.100000140143
36	263720	48.362212301726	0.10000014007
36	264277	48.462212441641	0.100000139915
36	264834	48.562212581319	0.100000139678
36	265391	48.662212720674	0.100000139355
36	265948	48.762212859613	0.100000138939
36	266505	48.862212998049	0.100000138436
36	267062	48.962213135884	0.100000137835
36	267627	49.062213273025	0.100000137141
36	268184	49.162213409375	0.10000013635
36	268741	49.262213544833	0.100000135458
36	269298	49.362213679305	0.100000134472
36	269855	49.462213812692	0.100000133387
36	270412	49.562213944896	0.100000132204
36	270969	49.662214075826	0.10000013093
36	271526	49.762214205402	0.100000129576
36	272083	49.862214333556	0.100000128154
36	272640	49.962214460237	0.100000126681
36	273205	50.062214585414	0.100000125177
36	273762	50.162214709072	0.100000123658
36	274319	50.262214831217	0.100000122145
36	274876	50.362214951872	0.100000120655
36	275433	50.462215071072	0.1000001192
36	275990	50.562215188865	0.100000117793
36	276547	50.662215305306	0.100000116441
36	277104	50.762215420462	0.100000115156
36	277661	50.8622155344	0.100000113938
36	278218	50.962215647198	0.100000112798
36	278783	51.062215758933	0.100000111735
36	279340	51.162215869688	0.100000110755
36	279897	51.262215979547	0.100000109859
36	280454	51.362216088602	0.100000109055
36	281011	51.462216196938	0.100000108336
36	281568	51.56221630465	0.100000107712
36	282125	51.662216411827	0.100000107177
36	282682	51.762216518564	0.100000106737
36	283239	51.862216624957	0.100000106393
36	283796	51.962216731098	0.100000106141
36	284361	52.062216837082	0.100000105984
36	284918	52.162216942996	0.100000105914
36	285475	52.262217048917	0.100000105921
36	286032	52.362217154908	0.100000105991
36	286589	52.462217261014	0.100000106106
36	287146	52.562217367267	0.100000106253
36	287703	52.662217473675	0.100000106408
36	288260	52.762217580228	0.100000106553
36	288817	52.862217686902	0.100000106674
36	289374	52.962217793656	0.100000106754
36	289939	53.06221790044	0.100000106784
36	290496	53.162218007195	0.100000106755
36	291053	53.262218113853	0.100000106658
36	291610	53.36221822034	0.100000106487
36	292167	53.462218326578	0.100000106238
36	292724	53.562218432484	0.100000105906
36	293281	53.662218537972	0.100000105488
36	293838	53.762218642954	0.100000104982
36	294395	53.862218747338	0.100000104384
36	294952	53.962218851031	0.100000103693
36	295517	54.06221895394	0.100000102909
36	296074	54.162219055967	0.100000102027
36	296631	54.262219157018	0.100000101051
36	297188	54.362219256992	0.100000099974
36	297745	54.462219355794	0.100000098802
36	298302	54.562219453327	0.100000097533
36	298859	54.662219549501	0.100000096174
