file 996475 1501598192                                          
version 2
run SinusoidalJammingDetail-186-20170801-16:36:13-106376
attr CACCSpacing 7
attr attackAcc -30
attr attackPos 7
attr attackSpeed 150
attr attackStart 30.5
attr attacker 1
attr beaconInterval 0.1
attr configname SinusoidalJammingDetail
attr controller 1
attr datetime 20170801-16:36:13
attr experiment SinusoidalJammingDetail
attr fakeAcc "(1 == 4)"
attr fakePos "(1 == 2)"
attr fakeSpeed "(1 == 3)"
attr inifile omnetpp_186.ini
attr iterationvars "$leaderSpeed=80, $controller=1, $CACCSpacing=7, $sController=\"CACC\", $attacker=1, $attackStart=30.5, $attackSpeed=150, $attackPos=7, $attackAcc=-30, $0=7, $1=0, $nCars=8, $platoonSize=8, $nLanes=1, $beaconInterval=0.1, $priority=2, $packetSize=200, $ploegH=0.5, $leaderHeadway=1.2, $fakeSpeed=(1 == 3), $fakeAcc=(1 == 4), $fakePos=(1 == 2)"
attr iterationvarsf leaderSpeed=80,controller=1,CACCSpacing=7,sController=CACC,attacker=1,attackStart=30.5,attackSpeed=150,attackPos=7,attackAcc=-30,7,0,nCars=8,platoonSize=8,nLanes=1,beaconInterval=0.1,priority=2,packetSize=200,ploegH=0.5,leaderHeadway=1.2,fakeSpeed=(1_==_3),fakeAcc=(1_==_4),fakePos=(1_==_2)-
attr leaderHeadway 1.2
attr leaderSpeed 80
attr measurement "$leaderSpeed=80, $controller=1, $CACCSpacing=7, $sController=\"CACC\", $attacker=1, $attackStart=30.5, $attackSpeed=150, $attackPos=7, $attackAcc=-30, $0=7, $1=0, $nCars=8, $platoonSize=8, $nLanes=1, $beaconInterval=0.1, $priority=2, $packetSize=200, $ploegH=0.5, $leaderHeadway=1.2, $fakeSpeed=(1 == 3), $fakeAcc=(1 == 4), $fakePos=(1 == 2)"
attr nCars 8
attr nLanes 1
attr network scenario
attr packetSize 200
attr platoonSize 8
attr ploegH 0.5
attr priority 2
attr processid 106376
attr repetition 1
attr replication #1
attr resultdir results
attr runnumber 186
attr sController "\"CACC\""
attr seedset 1
param **.coreDebug false
param **.debug false
param **.headway 0.1s
param **.numberOfCars 8
param **.numberOfCarsPerPlatoon 8
param **.numberOfLanes 1
param **.numericController 1
param **.traffic.nCars 8
param **.traffic.nLanes 1
param **.traffic.platoonInsertDistance 7m
param **.traffic.platoonInsertHeadway 0s
param **.traffic.platoonInsertSpeed 80kmph
param **.traffic.platoonInsertTime "1 s"
param **.traffic.platoonLeaderHeadway 1.2s
param **.traffic.platoonSize 8
param **.traffic.platooningVType "\"vtypeauto\""
param **.traffic_type "\"PlatoonsTrafficManager\""
param *.**.nic.mac1609_4.bitrate 6Mbps
param *.**.nic.mac1609_4.txPower 100mW
param *.**.nic.mac1609_4.useServiceChannel false
param *.**.nic.phy80211p.analogueModels "xmldoc(\"config.xml\")"
param *.**.nic.phy80211p.decider "xmldoc(\"config.xml\")"
param *.**.nic.phy80211p.maxTXPower 100mW
param *.**.nic.phy80211p.sensitivity -94dBm
param *.**.nic.phy80211p.thermalNoise -95dBm
param *.**.nic.phy80211p.usePropagationDelay true
param *.**.nic.phy80211p.useThermalNoise true
param *.annotations.draw false
param *.connectionManager.alpha 2.0
param *.connectionManager.carrierFrequency "5.890e9 Hz"
param *.connectionManager.pMax 100mW
param *.connectionManager.sat -94dBm
param *.connectionManager.sendDirect true
param *.manager.autoShutdown true
param *.manager.commandLine "\"sumo --remote-port $port --seed $seed --configuration-file $configFile\""
param *.manager.configFile "\"./sumocfg/freeway.sumo.cfg\""
param *.manager.host "\"localhost\""
param *.manager.margin 25
param *.manager.moduleDisplayString "\"\""
param *.manager.moduleName "\"node\""
param *.manager.moduleType "\"Car\""
param *.manager.updateInterval 0.01s
param *.node[*].appl.attackStart 30.5s
param *.node[*].appl.attackerType 1
param *.node[*].appl.simulationDuration "60 s"
param *.node[*].appl_type "\"SimplePlatooningApp\""
param *.node[*].helper.nCars 8
param *.node[*].helper.nLanes 1
param *.node[*].helper.platoonSize 8
param *.node[*].helper_type "\"PositionHelper\""
param *.node[*].mobility.x 0
param *.node[*].mobility.y 0
param *.node[*].mobility.z 1.895
param *.node[*].prot.attackStart 30.5s
param *.node[*].prot.attackerType 1
param *.node[*].prot.attackingNode 3
param *.node[*].prot.beaconingInterval 0.1s
param *.node[*].prot.fakeAcc "(1 == 4)"
param *.node[*].prot.fakePos "(1 == 2)"
param *.node[*].prot.fakeSpeed "(1 == 3)"
param *.node[*].prot.maliciousAcc "-30 mpss"
param *.node[*].prot.maliciousSpeed 150kmph
param *.node[*].prot.packetSize 200
param *.node[*].prot.priority 2
param *.node[*].prot.shiftX "7 m"
param *.node[*].prot.useControllerAcceleration true
param *.node[*].protocol_type "\"SimplePlatooningBeaconing\""
param *.node[*].scenario.accHeadway 0.1s
param *.node[*].scenario.caccC1 0.5
param *.node[*].scenario.caccOmegaN "0.2 Hz"
param *.node[*].scenario.caccSpacing 7m
param *.node[*].scenario.caccXi 1
param *.node[*].scenario.controller "\"CACC\""
param *.node[*].scenario.engineTau "0.5 s"
param *.node[*].scenario.leaderHeadway 1.2s
param *.node[*].scenario.leaderOscillationFrequency "0.2 Hz"
param *.node[*].scenario.leaderSpeed 80kmph
param *.node[*].scenario.oscillationAmplitude "10 kmph"
param *.node[*].scenario.ploegH 0.5s
param *.node[*].scenario.ploegKd 0.7
param *.node[*].scenario.ploegKp 0.2
param *.node[*].scenario.startOscillating "5 s"
param *.node[*].scenario.useRealisticEngine false
param *.node[*].scenario_type "\"SinusoidalScenario\""
param *.node[*].unicast.packetLossRate 0
param *.obstacles.debug false
param *.playgroundSizeX 65000m
param *.playgroundSizeY 25000m
param *.playgroundSizeZ 50m
param *.world.use2D false
param *.world.useTorus false

vector 0  scenario.node[0].appl  distance  ETV
vector 1  scenario.node[0].appl  relativeSpeed  ETV
vector 2  scenario.node[0].appl  nodeId  ETV
vector 6  scenario.node[0].appl  acceleration  ETV
vector 7  scenario.node[0].appl  controllerAcceleration  ETV
vector 3  scenario.node[0].appl  speed  ETV
vector 4  scenario.node[0].appl  posx  ETV
vector 5  scenario.node[0].appl  posy  ETV
vector 22  scenario.node[1].appl  distance  ETV
vector 23  scenario.node[1].appl  relativeSpeed  ETV
vector 24  scenario.node[1].appl  nodeId  ETV
vector 28  scenario.node[1].appl  acceleration  ETV
vector 29  scenario.node[1].appl  controllerAcceleration  ETV
vector 25  scenario.node[1].appl  speed  ETV
vector 26  scenario.node[1].appl  posx  ETV
vector 27  scenario.node[1].appl  posy  ETV
vector 44  scenario.node[2].appl  distance  ETV
vector 45  scenario.node[2].appl  relativeSpeed  ETV
vector 46  scenario.node[2].appl  nodeId  ETV
vector 50  scenario.node[2].appl  acceleration  ETV
vector 51  scenario.node[2].appl  controllerAcceleration  ETV
vector 47  scenario.node[2].appl  speed  ETV
vector 48  scenario.node[2].appl  posx  ETV
vector 49  scenario.node[2].appl  posy  ETV
vector 66  scenario.node[3].appl  distance  ETV
vector 67  scenario.node[3].appl  relativeSpeed  ETV
vector 68  scenario.node[3].appl  nodeId  ETV
vector 72  scenario.node[3].appl  acceleration  ETV
vector 73  scenario.node[3].appl  controllerAcceleration  ETV
vector 69  scenario.node[3].appl  speed  ETV
vector 70  scenario.node[3].appl  posx  ETV
vector 71  scenario.node[3].appl  posy  ETV
vector 88  scenario.node[4].appl  distance  ETV
vector 89  scenario.node[4].appl  relativeSpeed  ETV
vector 90  scenario.node[4].appl  nodeId  ETV
vector 94  scenario.node[4].appl  acceleration  ETV
vector 95  scenario.node[4].appl  controllerAcceleration  ETV
vector 91  scenario.node[4].appl  speed  ETV
vector 92  scenario.node[4].appl  posx  ETV
vector 93  scenario.node[4].appl  posy  ETV
vector 110  scenario.node[5].appl  distance  ETV
vector 111  scenario.node[5].appl  relativeSpeed  ETV
vector 112  scenario.node[5].appl  nodeId  ETV
vector 116  scenario.node[5].appl  acceleration  ETV
vector 117  scenario.node[5].appl  controllerAcceleration  ETV
vector 113  scenario.node[5].appl  speed  ETV
vector 114  scenario.node[5].appl  posx  ETV
vector 115  scenario.node[5].appl  posy  ETV
vector 132  scenario.node[6].appl  distance  ETV
vector 133  scenario.node[6].appl  relativeSpeed  ETV
vector 134  scenario.node[6].appl  nodeId  ETV
vector 138  scenario.node[6].appl  acceleration  ETV
vector 139  scenario.node[6].appl  controllerAcceleration  ETV
vector 135  scenario.node[6].appl  speed  ETV
vector 136  scenario.node[6].appl  posx  ETV
vector 137  scenario.node[6].appl  posy  ETV
vector 154  scenario.node[7].appl  distance  ETV
vector 155  scenario.node[7].appl  relativeSpeed  ETV
vector 156  scenario.node[7].appl  nodeId  ETV
vector 160  scenario.node[7].appl  acceleration  ETV
vector 161  scenario.node[7].appl  controllerAcceleration  ETV
vector 157  scenario.node[7].appl  speed  ETV
vector 158  scenario.node[7].appl  posx  ETV
vector 159  scenario.node[7].appl  posy  ETV
vector 58  scenario.node[2].prot  frontDelay  ETV
vector 56  scenario.node[2].prot  frontDelayId  ETV
vector 102  scenario.node[4].prot  frontDelay  ETV
vector 100  scenario.node[4].prot  frontDelayId  ETV
vector 146  scenario.node[6].prot  frontDelay  ETV
vector 144  scenario.node[6].prot  frontDelayId  ETV
vector 168  scenario.node[7].prot  frontDelay  ETV
vector 166  scenario.node[7].prot  frontDelayId  ETV
vector 124  scenario.node[5].prot  frontDelay  ETV
vector 122  scenario.node[5].prot  frontDelayId  ETV
vector 35  scenario.node[1].prot  leaderDelay  ETV
vector 33  scenario.node[1].prot  leaderDelayId  ETV
vector 36  scenario.node[1].prot  frontDelay  ETV
vector 34  scenario.node[1].prot  frontDelayId  ETV
vector 57  scenario.node[2].prot  leaderDelay  ETV
vector 55  scenario.node[2].prot  leaderDelayId  ETV
vector 79  scenario.node[3].prot  leaderDelay  ETV
vector 77  scenario.node[3].prot  leaderDelayId  ETV
vector 101  scenario.node[4].prot  leaderDelay  ETV
vector 99  scenario.node[4].prot  leaderDelayId  ETV
vector 123  scenario.node[5].prot  leaderDelay  ETV
vector 121  scenario.node[5].prot  leaderDelayId  ETV
vector 145  scenario.node[6].prot  leaderDelay  ETV
vector 143  scenario.node[6].prot  leaderDelayId  ETV
vector 167  scenario.node[7].prot  leaderDelay  ETV
vector 165  scenario.node[7].prot  leaderDelayId  ETV
vector 80  scenario.node[3].prot  frontDelay  ETV
vector 78  scenario.node[3].prot  frontDelayId  ETV
vector 8  scenario.node[0].prot  nodeId  ETV
vector 9  scenario.node[0].prot  busyTime  ETV
vector 10  scenario.node[0].prot  collisions  ETV
vector 30  scenario.node[1].prot  nodeId  ETV
vector 31  scenario.node[1].prot  busyTime  ETV
vector 32  scenario.node[1].prot  collisions  ETV
vector 52  scenario.node[2].prot  nodeId  ETV
vector 53  scenario.node[2].prot  busyTime  ETV
vector 54  scenario.node[2].prot  collisions  ETV
vector 74  scenario.node[3].prot  nodeId  ETV
vector 75  scenario.node[3].prot  busyTime  ETV
vector 76  scenario.node[3].prot  collisions  ETV
vector 96  scenario.node[4].prot  nodeId  ETV
vector 97  scenario.node[4].prot  busyTime  ETV
vector 98  scenario.node[4].prot  collisions  ETV
vector 118  scenario.node[5].prot  nodeId  ETV
vector 119  scenario.node[5].prot  busyTime  ETV
vector 120  scenario.node[5].prot  collisions  ETV
vector 140  scenario.node[6].prot  nodeId  ETV
vector 141  scenario.node[6].prot  busyTime  ETV
vector 142  scenario.node[6].prot  collisions  ETV
vector 162  scenario.node[7].prot  nodeId  ETV
vector 163  scenario.node[7].prot  busyTime  ETV
vector 164  scenario.node[7].prot  collisions  ETV
7	11240 8326 232 195424 1.11 36.11 351 -1.5 1.5 3.3220398696208 564.10883064959
6	19566 11005 232 195424 1.11 36.11 351 -1.4722746795719 1.451340770512 -4.0201540962443 375.47640655786
5	30571 7083 232 195424 1.11 36.11 351 36.55 36.55 12829.05 468901.7775
4	37654 10554 232 195424 1.11 36.11 351 111.82761459377 892.70152351288 176885.77117002 107105831.68062
3	48208 10562 232 195424 1.11 36.11 351 20.932420134352 24.18693697487 7830.8110314377 174969.33139213
1	58770 5679 232 195424 1.11 36.11 351 0 0 0 0
0	64449 6030 232 195424 1.11 36.11 351 -1 -1 -351 351
2	70479 5679 232 195424 1.11 36.11 351 0 0 0 0
10	76158 498 5168 194790 2 36 35 0 0 0 0
9	76656 674 5168 194790 2 36 35 0.023297 0.02625 0.915797 0.023970875209
8	77330 463 5168 194790 2 36 35 0 0 0 0
51	77793 11292 234 195426 1.11 36.11 351 -1.5092135986183 1.5122039556151 29.599957011107 488.281194167
50	89085 11337 234 195426 1.11 36.11 351 -1.4841297273922 1.4672918309405 28.947670246359 345.59371925129
49	100422 7434 234 195426 1.11 36.11 351 36.55 36.55 12829.05 468901.7775
48	107856 10911 234 195426 1.11 36.11 351 89.827614593506 879.08885680293 169252.12824033 99654259.065016
47	118767 10913 234 195426 1.11 36.11 351 20.926428547103 25.112588027346 7915.8472120958 178907.85615712
45	129680 12062 234 195426 1.11 36.11 351 -0.67480163497908 0.012241051616943 -14.675523075317 6.4817161775722
44	141742 10874 234 195426 1.11 36.11 351 5.591853372384 7.0331338553191 2439.094025502 16966.183146158
46	152616 6030 234 195426 1.11 36.11 351 2 2 702 1404
58	158646 13979 832 195468 1.212435623764 36.112435761162 350 0.09999851091 0.100011589131 34.99999872447 3.4999997506188
57	172625 13931 1244 195323 1.297802137452 36.09780369724 349 0.099998511356 0.100011589132 34.90000014686 3.490000035095
56	186556 9472 832 195468 1.212435623764 36.112435761162 350 2 2 700 1400
55	196028 9440 1244 195323 1.297802137452 36.09780369724 349 2 2 698 1396
54	205468 498 5170 194792 2 36 35 0 0 0 0
53	205966 709 5170 194792 2 36 35 0.023296 0.02625 0.915796 0.023970828616
52	206675 498 5170 194792 2 36 35 2 2 70 140
73	207173 11255 235 195427 1.11 36.11 351 -1.4954488827608 1.498650875993 34.439879708177 479.94492716368
72	218428 11319 235 195427 1.11 36.11 351 -1.4697266186513 1.4522492480406 33.30752865949 344.68811450152
71	229747 7434 235 195427 1.11 36.11 351 36.55 36.55 12829.05 468901.7775
70	237181 10913 235 195427 1.11 36.11 351 78.827614593506 868.88529340246 165399.064316 95989399.05946
69	248094 10915 235 195427 1.11 36.11 351 20.941219553242 25.543646195769 7923.9634086008 179306.62506341
67	259009 11957 235 195427 1.11 36.11 351 -0.43227205941903 0.021653890965673 -8.4056732075041 2.3420211125449
66	270966 10896 235 195427 1.11 36.11 351 6.2121845638407 7.0520780440122 2449.2262482607 17095.306410227
68	281862 6030 235 195427 1.11 36.11 351 3 3 1053 3159
80	287892 13968 1312 195392 1.307224174144 36.10722573129 349 0.099998511214 0.100011589303 34.900000144218 3.4900000345657
79	301860 13929 1250 195329 1.297802174144 36.097803731305 349 0.099998511216 0.100011589131 34.900000144233 3.4900000345696
78	315789 9462 1312 195392 1.307224174144 36.10722573129 349 3 3 1047 3141
77	325251 9432 1250 195329 1.297802174144 36.097803731305 349 3 3 1047 3141
76	334683 498 5171 194793 2 36 35 0 0 0 0
75	335181 709 5171 194793 2 36 35 0.023297 0.02625 0.915797 0.023970875209
74	335890 498 5171 194793 2 36 35 3 3 105 315
95	336388 11279 236 195428 1.11 36.11 351 -1.5015734371532 1.5060862693594 37.864168608428 491.04066556986
94	347667 11336 236 195428 1.11 36.11 351 -1.4671620121238 1.4503898319514 36.048223380091 347.647989698
93	359003 7434 236 195428 1.11 36.11 351 36.55 36.55 12829.05 468901.7775
92	366437 10908 236 195428 1.11 36.11 351 67.827614593506 858.36567445041 161541.64144054 92401252.567225
91	377345 10910 236 195428 1.11 36.11 351 20.942657310167 25.811638403772 7928.8620321076 179551.65348549
89	388255 11986 236 195428 1.11 36.11 351 -0.27052063919396 0.01582760969718 -5.2316987933826 0.90617211303157
88	400241 10869 236 195428 1.11 36.11 351 6.5249787962098 7.0167040772016 2453.5208479321 17152.125265535
90	411110 6030 236 195428 1.11 36.11 351 4 4 1404 5616
102	417140 14287 902 194981 1.235039697148 36.035041319591 349 0.099998514068 0.100011589143 34.900000209515 3.4900000476255
101	431427 14287 1256 195335 1.297802210836 36.097803766412 349 0.099998511128 0.100011589132 34.900000142648 3.4900000342526
100	445714 9786 902 194981 1.235039697148 36.035041319591 349 4 4 1396 5584
99	455500 9440 1256 195335 1.297802210836 36.097803766412 349 4 4 1396 5584
98	464940 498 5172 194794 2 36 35 0 0 0 0
97	465438 709 5172 194794 2 36 35 0.023297 0.02625 0.915797 0.023970875209
96	466147 498 5172 194794 2 36 35 4 4 140 560
117	466645 11645 237 195429 1.11 36.11 351 -1.5284774918693 1.5300606687832 40.580503385047 507.55364320917
116	478290 11683 237 195429 1.11 36.11 351 -1.4661745110995 1.4484846942715 37.698486866196 349.5140429817
115	489973 7785 237 195429 1.11 36.11 351 36.55 36.55 12829.05 468901.7775
114	497758 11251 237 195429 1.11 36.11 351 56.827616500854 847.57109758897 157679.51698414 88890224.187945
113	509009 11262 237 195429 1.11 36.11 351 20.944594951374 25.97487290937 7930.9735800688 179660.05658597
111	520271 12271 237 195429 1.11 36.11 351 -0.16668934187448 0.020930935807694 -2.4720301950128 0.3373523534984
110	532542 11255 237 195429 1.11 36.11 351 6.7978415515447 7.0458384120611 2458.1666873597 17215.707857597
112	543797 6381 237 195429 1.11 36.11 351 5 5 1755 8775
124	550178 14295 1178 195257 1.297388953992 36.097390572826 349 0.099998513809 0.100011589313 34.900000205906 3.4900000469033
123	564473 14306 1262 195341 1.297802247528 36.09780380243 349 0.099998511075 0.100011589125 34.900000141974 3.4900000341178
122	578779 9785 1178 195257 1.297388953992 36.097390572826 349 5 5 1745 8725
121	588564 9794 1262 195341 1.297802247528 36.09780380243 349 5 5 1745 8725
120	598358 533 5173 194795 2 36 35 0 0 0 0
119	598891 744 5173 194795 2 36 35 0.023297 0.02625 0.915797 0.023970875209
118	599635 533 5173 194795 2 36 35 5 5 175 875
139	600168 11637 238 195430 1.11 36.11 351 -1.4999727116691 1.5046152594702 41.159494538641 491.27787222813
138	611805 11684 238 195430 1.11 36.11 351 -1.460550530555 1.4432664539633 38.68275185033 348.06495708048
137	623489 7785 238 195430 1.11 36.11 351 36.55 36.55 12829.05 468901.7775
136	631274 11260 238 195430 1.11 36.11 351 45.827616500854 836.71871568354 153817.87718624 85464474.327206
135	642534 11260 238 195430 1.11 36.11 351 20.951030230313 26.06950867065 7932.4835925115 179734.61251447
133	653794 12306 238 195430 1.11 36.11 351 -0.098779887236546 0.023301943261583 -1.8869973113498 0.18198267413767
132	666100 11227 238 195430 1.11 36.11 351 6.8542746206641 7.018854146815 2457.6699981473 17208.56940151
134	677327 6381 238 195430 1.11 36.11 351 6 6 2106 12636
146	683708 14306 970 195049 1.248712770532 36.048714391862 349 0.099998513985 0.100011589283 34.900000208402 3.4900000474025
145	698014 14286 1268 195347 1.29780228422 36.097803838636 349 0.099998511044 0.100011589129 34.900000141488 3.4900000340206
144	712300 9798 970 195049 1.248712770532 36.048714391862 349 6 6 2094 12564
143	722098 9778 1268 195347 1.29780228422 36.097803838636 349 6 6 2094 12564
142	731876 533 5174 194796 2 36 35 0 0 0 0
141	732409 744 5174 194796 2 36 35 0.023297 0.02625 0.915797 0.023970875209
140	733153 533 5174 194796 2 36 35 6 6 210 1260
161	733686 11640 239 195431 1.11 36.11 351 -1.5093935076145 1.5126459257711 42.179996129233 500.1681831722
160	745326 11701 239 195431 1.11 36.11 351 -1.461969272858 1.4451435684506 39.302833897547 350.22134124952
159	757027 7785 239 195431 1.11 36.11 351 36.55 36.55 12829.05 468901.7775
158	764812 11261 239 195431 1.11 36.11 351 34.827616024017 825.8200667383 149955.84740045 82122667.831587
157	776073 11245 239 195431 1.11 36.11 351 20.94893153143 26.130234012146 7933.5183764395 179788.01195223
155	787318 12315 239 195431 1.11 36.11 351 -0.065309298085616 0.024254041367211 -1.4216114464787 0.12628146087257
154	799633 11254 239 195431 1.11 36.11 351 6.8998634520609 7.0179695323716 2458.0504814701 17213.814748438
156	810887 6381 239 195431 1.11 36.11 351 7 7 2457 17199
168	817268 14289 1040 195119 1.263893807224 36.063895428226 349 0.099998517399 0.100011589311 34.900000208074 3.4900000473366
167	831557 14290 1274 195353 1.297802320912 36.097803874994 349 0.099998511024 0.10001158913 34.900000141154 3.4900000339538
166	845847 9794 1040 195119 1.263893807224 36.063895428226 349 7 7 2443 17101
165	855641 9797 1274 195353 1.297802320912 36.097803874994 349 7 7 2443 17101
164	865438 533 5175 194797 2 36 35 0 0 0 0
163	865971 744 5175 194797 2 36 35 0.023297 0.02625 0.915797 0.023970875209
162	866715 533 5175 194797 2 36 35 7 7 245 1715
22	867248 10936 233 195502 1.11 36.13 352 0 7.4569596780414 2388.2496277922 16617.593846289
23	878184 11685 233 195502 1.11 36.13 352 -3.4648980185772 0.41048196079211 -73.188627105739 221.49085367631
24	889869 6048 233 195502 1.11 36.13 352 1 1 352 352
25	895917 10932 233 195502 1.11 36.13 352 20.916072889595 24.442908608742 7925.8294669649 178803.26895481
26	906849 10938 233 195502 1.11 36.13 352 100.82761459351 889.15593249215 173984.08911281 104176744.62778
27	917787 7456 233 195502 1.11 36.13 352 36.55 36.55 12865.6 470237.68
28	925243 11386 233 195502 1.11 36.13 352 -1.4954736393971 1.4760592278662 22.080042150635 343.20143899514
29	936629 11351 233 195502 1.11 36.13 352 -1.5555551933587 1.5570065775649 22.257061080411 506.61241924828
30	947980 498 5169 194791 2 36 35 1 1 35 35
31	948478 709 5169 194791 2 36 35 0.023297 0.02625 0.915797 0.023970875209
32	949187 498 5169 194791 2 36 35 0 0 0 0
33	949685 9445 1238 195317 1.29780210076 36.097803665245 349 1 1 349 349
34	959130 9445 1238 195317 1.29780210076 36.097803665245 349 1 1 349 349
35	968575 13950 1238 195317 1.29780210076 36.097803665245 349 0.099998511579 0.100011589132 34.900000151557 3.4900000360344
36	982525 13950 1238 195317 1.29780210076 36.097803665245 349 0.099998511579 0.100011589132 34.900000151557 3.4900000360344
