version 2
run SinusoidalJammingDetail-248-20170801-16:50:19-36510
attr CACCSpacing 11
attr attackAcc -30
attr attackPos 7
attr attackSpeed 150
attr attackStart 30.5
attr attacker 1
attr beaconInterval 0.1
attr configname SinusoidalJammingDetail
attr controller 1
attr datetime 20170801-16:50:19
attr experiment SinusoidalJammingDetail
attr fakeAcc "(1 == 4)"
attr fakePos "(1 == 2)"
attr fakeSpeed "(1 == 3)"
attr inifile omnetpp_248.ini
attr iterationvars "$leaderSpeed=80, $controller=1, $CACCSpacing=11, $sController=\"CACC\", $attacker=1, $attackStart=30.5, $attackSpeed=150, $attackPos=7, $attackAcc=-30, $0=11, $1=0, $nCars=8, $platoonSize=8, $nLanes=1, $beaconInterval=0.1, $priority=2, $packetSize=200, $ploegH=0.5, $leaderHeadway=1.2, $fakeSpeed=(1 == 3), $fakeAcc=(1 == 4), $fakePos=(1 == 2)"
attr iterationvarsf leaderSpeed=80,controller=1,CACCSpacing=11,sController=CACC,attacker=1,attackStart=30.5,attackSpeed=150,attackPos=7,attackAcc=-30,11,0,nCars=8,platoonSize=8,nLanes=1,beaconInterval=0.1,priority=2,packetSize=200,ploegH=0.5,leaderHeadway=1.2,fakeSpeed=(1_==_3),fakeAcc=(1_==_4),fakePos=(1_==_2)-
attr leaderHeadway 1.2
attr leaderSpeed 80
attr measurement "$leaderSpeed=80, $controller=1, $CACCSpacing=11, $sController=\"CACC\", $attacker=1, $attackStart=30.5, $attackSpeed=150, $attackPos=7, $attackAcc=-30, $0=11, $1=0, $nCars=8, $platoonSize=8, $nLanes=1, $beaconInterval=0.1, $priority=2, $packetSize=200, $ploegH=0.5, $leaderHeadway=1.2, $fakeSpeed=(1 == 3), $fakeAcc=(1 == 4), $fakePos=(1 == 2)"
attr nCars 8
attr nLanes 1
attr network scenario
attr packetSize 200
attr platoonSize 8
attr ploegH 0.5
attr priority 2
attr processid 36510
attr repetition 3
attr replication #3
attr resultdir results
attr runnumber 248
attr sController "\"CACC\""
attr seedset 3
param **.coreDebug false
param **.debug false
param **.headway 0.1s
param **.numberOfCars 8
param **.numberOfCarsPerPlatoon 8
param **.numberOfLanes 1
param **.numericController 1
param **.traffic.nCars 8
param **.traffic.nLanes 1
param **.traffic.platoonInsertDistance 11m
param **.traffic.platoonInsertHeadway 0s
param **.traffic.platoonInsertSpeed 80kmph
param **.traffic.platoonInsertTime "1 s"
param **.traffic.platoonLeaderHeadway 1.2s
param **.traffic.platoonSize 8
param **.traffic.platooningVType "\"vtypeauto\""
param **.traffic_type "\"PlatoonsTrafficManager\""
param *.**.nic.mac1609_4.bitrate 6Mbps
param *.**.nic.mac1609_4.txPower 100mW
param *.**.nic.mac1609_4.useServiceChannel false
param *.**.nic.phy80211p.analogueModels "xmldoc(\"config.xml\")"
param *.**.nic.phy80211p.decider "xmldoc(\"config.xml\")"
param *.**.nic.phy80211p.maxTXPower 100mW
param *.**.nic.phy80211p.sensitivity -94dBm
param *.**.nic.phy80211p.thermalNoise -95dBm
param *.**.nic.phy80211p.usePropagationDelay true
param *.**.nic.phy80211p.useThermalNoise true
param *.annotations.draw false
param *.connectionManager.alpha 2.0
param *.connectionManager.carrierFrequency "5.890e9 Hz"
param *.connectionManager.pMax 100mW
param *.connectionManager.sat -94dBm
param *.connectionManager.sendDirect true
param *.manager.autoShutdown true
param *.manager.commandLine "\"sumo --remote-port $port --seed $seed --configuration-file $configFile\""
param *.manager.configFile "\"./sumocfg/freeway.sumo.cfg\""
param *.manager.host "\"localhost\""
param *.manager.margin 25
param *.manager.moduleDisplayString "\"\""
param *.manager.moduleName "\"node\""
param *.manager.moduleType "\"Car\""
param *.manager.updateInterval 0.01s
param *.node[*].appl.attackStart 30.5s
param *.node[*].appl.attackerType 1
param *.node[*].appl.simulationDuration "60 s"
param *.node[*].appl_type "\"SimplePlatooningApp\""
param *.node[*].helper.nCars 8
param *.node[*].helper.nLanes 1
param *.node[*].helper.platoonSize 8
param *.node[*].helper_type "\"PositionHelper\""
param *.node[*].mobility.x 0
param *.node[*].mobility.y 0
param *.node[*].mobility.z 1.895
param *.node[*].prot.attackStart 30.5s
param *.node[*].prot.attackerType 1
param *.node[*].prot.attackingNode 3
param *.node[*].prot.beaconingInterval 0.1s
param *.node[*].prot.fakeAcc "(1 == 4)"
param *.node[*].prot.fakePos "(1 == 2)"
param *.node[*].prot.fakeSpeed "(1 == 3)"
param *.node[*].prot.maliciousAcc "-30 mpss"
param *.node[*].prot.maliciousSpeed 150kmph
param *.node[*].prot.packetSize 200
param *.node[*].prot.priority 2
param *.node[*].prot.shiftX "7 m"
param *.node[*].prot.useControllerAcceleration true
param *.node[*].protocol_type "\"SimplePlatooningBeaconing\""
param *.node[*].scenario.accHeadway 0.1s
param *.node[*].scenario.caccC1 0.5
param *.node[*].scenario.caccOmegaN "0.2 Hz"
param *.node[*].scenario.caccSpacing 11m
param *.node[*].scenario.caccXi 1
param *.node[*].scenario.controller "\"CACC\""
param *.node[*].scenario.engineTau "0.5 s"
param *.node[*].scenario.leaderHeadway 1.2s
param *.node[*].scenario.leaderOscillationFrequency "0.2 Hz"
param *.node[*].scenario.leaderSpeed 80kmph
param *.node[*].scenario.oscillationAmplitude "10 kmph"
param *.node[*].scenario.ploegH 0.5s
param *.node[*].scenario.ploegKd 0.7
param *.node[*].scenario.ploegKp 0.2
param *.node[*].scenario.startOscillating "5 s"
param *.node[*].scenario.useRealisticEngine false
param *.node[*].scenario_type "\"SinusoidalScenario\""
param *.node[*].unicast.packetLossRate 0
param *.obstacles.debug false
param *.playgroundSizeX 65000m
param *.playgroundSizeY 25000m
param *.playgroundSizeZ 50m
param *.world.use2D false
param *.world.useTorus false

vector 0  scenario.node[0].appl  distance  ETV
vector 1  scenario.node[0].appl  relativeSpeed  ETV
vector 2  scenario.node[0].appl  nodeId  ETV
vector 6  scenario.node[0].appl  acceleration  ETV
vector 7  scenario.node[0].appl  controllerAcceleration  ETV
vector 3  scenario.node[0].appl  speed  ETV
vector 4  scenario.node[0].appl  posx  ETV
vector 5  scenario.node[0].appl  posy  ETV
vector 22  scenario.node[1].appl  distance  ETV
vector 23  scenario.node[1].appl  relativeSpeed  ETV
vector 24  scenario.node[1].appl  nodeId  ETV
vector 28  scenario.node[1].appl  acceleration  ETV
vector 29  scenario.node[1].appl  controllerAcceleration  ETV
vector 25  scenario.node[1].appl  speed  ETV
vector 26  scenario.node[1].appl  posx  ETV
vector 27  scenario.node[1].appl  posy  ETV
vector 44  scenario.node[2].appl  distance  ETV
vector 45  scenario.node[2].appl  relativeSpeed  ETV
vector 46  scenario.node[2].appl  nodeId  ETV
vector 50  scenario.node[2].appl  acceleration  ETV
vector 51  scenario.node[2].appl  controllerAcceleration  ETV
vector 47  scenario.node[2].appl  speed  ETV
vector 48  scenario.node[2].appl  posx  ETV
vector 49  scenario.node[2].appl  posy  ETV
vector 66  scenario.node[3].appl  distance  ETV
vector 67  scenario.node[3].appl  relativeSpeed  ETV
vector 68  scenario.node[3].appl  nodeId  ETV
vector 72  scenario.node[3].appl  acceleration  ETV
vector 73  scenario.node[3].appl  controllerAcceleration  ETV
vector 69  scenario.node[3].appl  speed  ETV
vector 70  scenario.node[3].appl  posx  ETV
vector 71  scenario.node[3].appl  posy  ETV
vector 88  scenario.node[4].appl  distance  ETV
vector 89  scenario.node[4].appl  relativeSpeed  ETV
vector 90  scenario.node[4].appl  nodeId  ETV
vector 94  scenario.node[4].appl  acceleration  ETV
vector 95  scenario.node[4].appl  controllerAcceleration  ETV
vector 91  scenario.node[4].appl  speed  ETV
vector 92  scenario.node[4].appl  posx  ETV
vector 93  scenario.node[4].appl  posy  ETV
vector 110  scenario.node[5].appl  distance  ETV
vector 111  scenario.node[5].appl  relativeSpeed  ETV
vector 112  scenario.node[5].appl  nodeId  ETV
vector 116  scenario.node[5].appl  acceleration  ETV
vector 117  scenario.node[5].appl  controllerAcceleration  ETV
vector 113  scenario.node[5].appl  speed  ETV
vector 114  scenario.node[5].appl  posx  ETV
vector 115  scenario.node[5].appl  posy  ETV
vector 132  scenario.node[6].appl  distance  ETV
vector 133  scenario.node[6].appl  relativeSpeed  ETV
vector 134  scenario.node[6].appl  nodeId  ETV
vector 138  scenario.node[6].appl  acceleration  ETV
vector 139  scenario.node[6].appl  controllerAcceleration  ETV
vector 135  scenario.node[6].appl  speed  ETV
vector 136  scenario.node[6].appl  posx  ETV
vector 137  scenario.node[6].appl  posy  ETV
vector 154  scenario.node[7].appl  distance  ETV
vector 155  scenario.node[7].appl  relativeSpeed  ETV
vector 156  scenario.node[7].appl  nodeId  ETV
vector 160  scenario.node[7].appl  acceleration  ETV
vector 161  scenario.node[7].appl  controllerAcceleration  ETV
vector 157  scenario.node[7].appl  speed  ETV
vector 158  scenario.node[7].appl  posx  ETV
vector 159  scenario.node[7].appl  posy  ETV
vector 35  scenario.node[1].prot  leaderDelay  ETV
vector 33  scenario.node[1].prot  leaderDelayId  ETV
vector 36  scenario.node[1].prot  frontDelay  ETV
vector 34  scenario.node[1].prot  frontDelayId  ETV
vector 57  scenario.node[2].prot  leaderDelay  ETV
vector 55  scenario.node[2].prot  leaderDelayId  ETV
vector 79  scenario.node[3].prot  leaderDelay  ETV
vector 77  scenario.node[3].prot  leaderDelayId  ETV
vector 101  scenario.node[4].prot  leaderDelay  ETV
vector 99  scenario.node[4].prot  leaderDelayId  ETV
vector 123  scenario.node[5].prot  leaderDelay  ETV
vector 121  scenario.node[5].prot  leaderDelayId  ETV
vector 145  scenario.node[6].prot  leaderDelay  ETV
vector 143  scenario.node[6].prot  leaderDelayId  ETV
vector 167  scenario.node[7].prot  leaderDelay  ETV
vector 165  scenario.node[7].prot  leaderDelayId  ETV
vector 168  scenario.node[7].prot  frontDelay  ETV
vector 166  scenario.node[7].prot  frontDelayId  ETV
vector 58  scenario.node[2].prot  frontDelay  ETV
vector 56  scenario.node[2].prot  frontDelayId  ETV
vector 124  scenario.node[5].prot  frontDelay  ETV
vector 122  scenario.node[5].prot  frontDelayId  ETV
vector 80  scenario.node[3].prot  frontDelay  ETV
vector 78  scenario.node[3].prot  frontDelayId  ETV
vector 146  scenario.node[6].prot  frontDelay  ETV
vector 144  scenario.node[6].prot  frontDelayId  ETV
vector 102  scenario.node[4].prot  frontDelay  ETV
vector 100  scenario.node[4].prot  frontDelayId  ETV
vector 8  scenario.node[0].prot  nodeId  ETV
vector 9  scenario.node[0].prot  busyTime  ETV
vector 10  scenario.node[0].prot  collisions  ETV
vector 30  scenario.node[1].prot  nodeId  ETV
vector 31  scenario.node[1].prot  busyTime  ETV
vector 32  scenario.node[1].prot  collisions  ETV
vector 52  scenario.node[2].prot  nodeId  ETV
vector 53  scenario.node[2].prot  busyTime  ETV
vector 54  scenario.node[2].prot  collisions  ETV
vector 74  scenario.node[3].prot  nodeId  ETV
vector 75  scenario.node[3].prot  busyTime  ETV
vector 76  scenario.node[3].prot  collisions  ETV
vector 96  scenario.node[4].prot  nodeId  ETV
vector 97  scenario.node[4].prot  busyTime  ETV
vector 98  scenario.node[4].prot  collisions  ETV
vector 118  scenario.node[5].prot  nodeId  ETV
vector 119  scenario.node[5].prot  busyTime  ETV
vector 120  scenario.node[5].prot  collisions  ETV
vector 140  scenario.node[6].prot  nodeId  ETV
vector 141  scenario.node[6].prot  busyTime  ETV
vector 142  scenario.node[6].prot  collisions  ETV
vector 162  scenario.node[7].prot  nodeId  ETV
vector 163  scenario.node[7].prot  busyTime  ETV
vector 164  scenario.node[7].prot  collisions  ETV
7	232	1.11	8.430731206488e-07
7	788	1.21	8.247038785214e-07
7	1344	1.31	7.948429328053e-07
7	1900	1.41	7.5609037608615e-07
7	2456	1.51	7.1073863239235e-07
7	3012	1.61	6.6078666094427e-07
7	3568	1.71	6.079568990458e-07
7	4124	1.81	5.5371389606762e-07
7	4680	1.91	4.9928438983216e-07
7	5244	2.01	4.4567811841034e-07
7	5800	2.11	3.9370868165634e-07
7	6356	2.21	3.4401411852514e-07
7	6912	2.31	2.9707706872273e-07
7	7468	2.41	2.5324398578164e-07
7	8024	2.51	2.1274344064182e-07
7	8580	2.61	1.7570315336002e-07
7	9136	2.71	1.4216582755466e-07
7	9692	2.81	1.1210364547765e-07
7	10248	2.91	8.5431519636359e-08
7	10812	3.01	6.2018816748832e-08
7	11368	3.11	4.1699859565369e-08
7	11924	3.21	2.4283316690799e-08
7	12480	3.31	9.5601571103998e-09
7	13036	3.41	-2.6894362292751e-09
7	13592	3.51	-1.2690140493987e-08
7	14148	3.61	-2.0666576006079e-08
7	14704	3.71	-2.6839355626862e-08
7	15260	3.81	-3.1421798496467e-08
7	15816	3.91	-3.4617407607129e-08
7	16380	4.01	-3.6617997523081e-08
7	16936	4.11	-3.7602347902066e-08
7	17492	4.21	-3.7735404134764e-08
7	18048	4.31	-3.7167730226884e-08
7	18604	4.41	-3.6035434192172e-08
7	19160	4.51	-3.446024621212e-08
7	19716	4.61	-3.2549973383311e-08
7	20272	4.71	-3.0399071704323e-08
7	20828	4.81	-2.8089345960325e-08
7	21384	4.91	-2.5690727767369e-08
7	21949	5.01	-2.326218861981e-08
7	22506	5.11	0.34814785015927
7	23063	5.21	0.68726933461214
7	23620	5.31	1.0064705986278
7	24177	5.41	1.2963311417008
7	24734	5.51	1.5
7	25291	5.61	1.5
7	25848	5.71	1.5
7	26405	5.81	1.5
7	26962	5.91	1.5
7	27527	6.01	1.5
7	28084	6.11	1.5
7	28641	6.21	1.5
7	29198	6.31	1.5
7	29755	6.41	1.5
7	30312	6.51	1.49192340766
7	30869	6.61	1.22649932262
7	31426	6.71	0.92305383478006
7	31983	6.81	0.58908101519542
7	32540	6.91	0.23235621239028
7	33105	7.01	-0.13919560128961
7	33662	7.11	-0.5176284684353
7	34219	7.21	-0.89509994168449
7	34776	7.31	-1.2639902903501
7	35333	7.41	-1.5
7	35890	7.51	-1.5
7	36447	7.61	-1.5
7	37004	7.71	-1.5
7	37561	7.81	-1.5
7	38118	7.91	-1.5
7	38683	8.01	-1.5
7	39240	8.11	-1.5
7	39797	8.21	-1.5
7	40354	8.31	-1.5
7	40911	8.41	-1.5
7	41468	8.51	-1.5
7	42025	8.61	-1.5
7	42582	8.71	-1.5
7	43139	8.81	-1.5
7	43696	8.91	-1.5
7	44261	9.01	-1.5
7	44818	9.11	-1.5
7	45375	9.21	-1.5
7	45932	9.31	-1.5
7	46489	9.41	-1.5
7	47046	9.51	-1.1784535907027
7	47603	9.61	-0.73985166445766
7	48160	9.71	-0.29046662083969
7	48717	9.81	0.158682056465
7	49274	9.91	0.59737147669388
7	49839	10.01	1.0162504339893
7	50396	10.11	1.4069035497099
7	50953	10.21	1.5
7	51510	10.31	1.5
7	52067	10.41	1.5
7	52624	10.51	1.5
7	53181	10.61	1.5
7	53738	10.71	1.5
7	54295	10.81	1.5
7	54852	10.91	1.5
7	55417	11.01	1.5
7	55974	11.11	1.5
7	56531	11.21	1.5
7	57088	11.31	1.5
7	57645	11.41	1.5
7	58202	11.51	1.5
7	58759	11.61	1.5
7	59316	11.71	1.5
7	59873	11.81	1.5
7	60430	11.91	1.1420569522637
7	60995	12.01	0.73271074167055
7	61552	12.11	0.3076349169641
7	62109	12.21	-0.12290183406852
7	62666	12.31	-0.54917422870931
7	63223	12.41	-0.96209331721755
7	63780	12.51	-1.3532900275778
7	64337	12.61	-1.5
7	64894	12.71	-1.5
7	65451	12.81	-1.5
7	66008	12.91	-1.5
7	66573	13.01	-1.5
7	67130	13.11	-1.5
7	67687	13.21	-1.5
7	68244	13.31	-1.5
7	68801	13.41	-1.5
7	69358	13.51	-1.5
7	69915	13.61	-1.5
7	70472	13.71	-1.5
7	71029	13.81	-1.5
7	71586	13.91	-1.5
7	72151	14.01	-1.5
7	72708	14.11	-1.5
7	73265	14.21	-1.5
7	73822	14.31	-1.5
7	74379	14.41	-1.3008305793368
7	74936	14.51	-0.88835736023102
7	75493	14.61	-0.45792464376746
7	76050	14.71	-0.020297800498863
7	76607	14.81	0.41435934755698
7	77164	14.91	0.83657487483132
7	77729	15.01	1.2376491838803
7	78286	15.11	1.5
7	78843	15.21	1.5
7	79400	15.31	1.5
7	79957	15.41	1.5
7	80514	15.51	1.5
7	81071	15.61	1.5
7	81628	15.71	1.5
7	82185	15.81	1.5
7	82742	15.91	1.5
7	83307	16.01	1.5
7	83864	16.11	1.5
7	84421	16.21	1.5
7	84978	16.31	1.5
7	85535	16.41	1.5
7	86092	16.51	1.5
7	86649	16.61	1.5
7	87206	16.71	1.5
7	87763	16.81	1.5
7	88320	16.91	1.2451238477314
7	88885	17.01	0.83347870134691
7	89442	17.11	0.40470958876234
7	89999	17.21	-0.03059806222544
7	90556	17.31	-0.46243980387284
7	91113	17.41	-0.88148335305215
7	91670	17.51	-1.2791500631777
7	92227	17.61	-1.5
7	92784	17.71	-1.5
7	93341	17.81	-1.5
7	93898	17.91	-1.5
7	94463	18.01	-1.5
7	95020	18.11	-1.5
7	95577	18.21	-1.5
7	96134	18.31	-1.5
7	96691	18.41	-1.5
7	97248	18.51	-1.5
7	97805	18.61	-1.5
7	98362	18.71	-1.5
7	98919	18.81	-1.5
7	99476	18.91	-1.5
7	100041	19.01	-1.5
7	100598	19.11	-1.5
7	101155	19.21	-1.5
7	101712	19.31	-1.5
7	102269	19.41	-1.2657245815164
7	102826	19.51	-0.85377693481871
7	103383	19.61	-0.4243956003844
7	103940	19.71	0.011767371264867
7	104497	19.81	0.44464851836084
7	105054	19.91	0.86486384400239
7	105619	20.01	1.2637899041101
7	106176	20.11	1.5
7	106733	20.21	1.5
7	107290	20.31	1.5
7	107847	20.41	1.5
7	108404	20.51	1.5
7	108961	20.61	1.5
7	109518	20.71	1.5
7	110075	20.81	1.5
7	110632	20.91	1.5
7	111197	21.01	1.5
7	111754	21.11	1.5
7	112311	21.21	1.5
7	112868	21.31	1.5
7	113425	21.41	1.5
7	113982	21.51	1.5
7	114539	21.61	1.5
7	115096	21.71	1.5
7	115653	21.81	1.5
7	116210	21.91	1.2580915517753
7	116775	22.01	0.84625491634726
7	117332	22.11	0.41709956367407
7	117889	22.21	-0.018747163543662
7	118446	22.31	-0.45124369149508
7	119003	22.41	-0.87102520538678
7	119560	22.51	-1.2694848794604
7	120117	22.61	-1.5
7	120674	22.71	-1.5
7	121231	22.81	-1.5
7	121788	22.91	-1.5
7	122353	23.01	-1.5
7	122910	23.11	-1.5
7	123467	23.21	-1.5
7	124024	23.31	-1.5
7	124581	23.41	-1.5
7	125138	23.51	-1.5
7	125695	23.61	-1.5
7	126252	23.71	-1.5
7	126809	23.81	-1.5
7	127366	23.91	-1.5
7	127931	24.01	-1.5
7	128488	24.11	-1.5
7	129045	24.21	-1.5
7	129602	24.31	-1.5
7	130159	24.41	-1.2609239651119
7	130716	24.51	-0.84904615684549
7	131273	24.61	-0.41980696481121
7	131830	24.71	0.016157099446048
7	132387	24.81	0.44879633966007
7	132944	24.91	0.86873882266865
7	133509	25.01	1.2673715557193
7	134066	25.11	1.5
7	134623	25.21	1.5
7	135180	25.31	1.5
7	135737	25.41	1.5
7	136294	25.51	1.5
7	136851	25.61	1.5
7	137408	25.71	1.5
7	137965	25.81	1.5
7	138522	25.91	1.5
7	139087	26.01	1.5
7	139644	26.11	1.5
7	140201	26.21	1.5
7	140758	26.31	1.5
7	141315	26.41	1.5
7	141872	26.51	1.5
7	142429	26.61	1.5
7	142986	26.71	1.5
7	143543	26.81	1.5
7	144100	26.91	1.2598728518627
7	144665	27.01	0.84801032251372
7	145222	27.11	0.41880224309083
7	145779	27.21	-0.017118277442513
7	146336	27.31	-0.44970455708465
7	146893	27.41	-0.86958730431945
7	147450	27.51	-1.2681558149833
7	148007	27.61	-1.5
7	148564	27.71	-1.5
7	149121	27.81	-1.5
7	149678	27.91	-1.5
7	150243	28.01	-1.5
7	150800	28.11	-1.5
7	151357	28.21	-1.5
7	151914	28.31	-1.5
7	152471	28.41	-1.5
7	153028	28.51	-1.5
7	153585	28.61	-1.5
7	154142	28.71	-1.5
7	154699	28.81	-1.5
7	155256	28.91	-1.5
7	155821	29.01	-1.5
7	156378	29.11	-1.5
7	156935	29.21	-1.5
7	157492	29.31	-1.5
7	158049	29.41	-1.2602629232518
7	158606	29.51	-0.84839472385647
7	159163	29.61	-0.41917509845289
7	159720	29.71	0.016761581286932
7	160277	29.81	0.44936751475819
7	160834	29.91	0.86927243012153
7	161399	30.01	1.2678647739108
7	161956	30.11	1.5
7	162513	30.21	1.5
7	163070	30.31	1.5
7	163627	30.41	1.5
7	164184	30.51	1.5
7	164741	30.61	1.5
7	165298	30.71	1.5
7	165855	30.81	1.5
7	166412	30.91	1.5
7	166977	31.01	1.5
7	167534	31.11	1.5
7	168091	31.21	1.5
7	168648	31.31	1.5
7	169205	31.41	1.5
7	169762	31.51	1.5
7	170319	31.61	1.5
7	170876	31.71	1.5
7	171433	31.81	1.5
7	171990	31.91	1.2601181665206
7	172555	32.01	0.84825207129739
7	173112	32.11	0.41903673064385
7	173669	32.21	-0.016893952363201
7	174226	32.31	-0.44949259223613
7	174783	32.41	-0.8693892809366
7	175340	32.51	-1.2679727801774
7	175897	32.61	-1.5
7	176454	32.71	-1.5
7	177011	32.81	-1.5
7	177568	32.91	-1.5
7	178133	33.01	-1.5
7	178690	33.11	-1.5
7	179247	33.21	-1.5
7	179804	33.31	-1.5
7	180361	33.41	-1.5
7	180918	33.51	-1.5
7	181475	33.61	-1.5
7	182032	33.71	-1.5
7	182589	33.81	-1.5
7	183146	33.91	-1.5
7	183711	34.01	-1.5
7	184268	34.11	-1.5
7	184825	34.21	-1.5
7	185382	34.31	-1.5
7	185939	34.41	-1.2601718862039
7	186496	34.51	-0.84830501011572
7	187053	34.61	-0.41908807937784
7	187610	34.71	0.016844829035751
7	188167	34.81	0.44944617558619
7	188724	34.91	0.86934591722748
7	189289	35.01	1.2679326987084
7	189846	35.11	1.5
7	190403	35.21	1.5
7	190960	35.31	1.5
7	191517	35.41	1.5
7	192074	35.51	1.5
7	192631	35.61	1.5
7	193188	35.71	1.5
7	193745	35.81	1.5
7	194302	35.91	1.5
7	194867	36.01	1.5
7	195424	36.11	1.5
7	195981	36.21	1.5
7	196538	36.31	1.5
7	197095	36.41	1.5
7	197652	36.51	1.5
7	198209	36.61	1.5
7	198766	36.71	1.5
7	199323	36.81	1.5
7	199880	36.91	1.2601519506571
7	200445	37.01	0.84828536435041
7	201002	37.11	0.41906902369789
7	201559	37.21	-0.016863058860206
7	202116	37.31	-0.4494634009539
7	202673	37.41	-0.86936200963903
7	203230	37.51	-1.2679475730701
7	203787	37.61	-1.5
7	204344	37.71	-1.5
7	204901	37.81	-1.5
7	205458	37.91	-1.5
7	206023	38.01	-1.5
7	206580	38.11	-1.5
7	207137	38.21	-1.5
7	207694	38.31	-1.5
7	208251	38.41	-1.5
7	208808	38.51	-1.5
7	209365	38.61	-1.5
7	209922	38.71	-1.5
7	210479	38.81	-1.5
7	211036	38.91	-1.5
7	211601	39.01	-1.5
6	232	1.11	1.2391545567425e-07
6	788	1.21	2.514333630188e-07
6	1344	1.31	3.5153284727585e-07
6	1900	1.41	4.2734420446777e-07
6	2456	1.51	4.8187125401e-07
6	3012	1.61	5.1795971955926e-07
6	3568	1.71	5.3827413637464e-07
6	4124	1.81	5.4528506154838e-07
6	4680	1.91	5.4125663950799e-07
6	5244	2.01	5.2824375984528e-07
6	5800	2.11	5.080941889446e-07
6	6356	2.21	4.8245141215375e-07
6	6912	2.31	4.5276244975412e-07
6	7468	2.41	4.202860282021e-07
6	8024	2.51	3.8610643571246e-07
6	8580	2.61	3.5114133822844e-07
6	9136	2.71	3.1616025353287e-07
6	9692	2.81	2.8179307776099e-07
6	10248	2.91	2.4854536206931e-07
6	10812	3.01	2.1681287876163e-07
6	11368	3.11	1.8689298997288e-07
6	11924	3.21	1.5899530581009e-07
6	12480	3.31	1.3325838210676e-07
6	13036	3.41	1.0975469422192e-07
6	13592	3.51	8.8505203166278e-08
6	14148	3.61	6.948575048682e-08
6	14704	3.71	5.263665059374e-08
6	15260	3.81	3.7870506730542e-08
6	15816	3.91	2.5077895315917e-08
6	16380	4.01	1.4133405557004e-08
6	16936	4.11	4.9016790626411e-09
6	17492	4.21	-2.7593927143243e-09
6	18048	4.31	-8.9940499492513e-09
6	18604	4.41	-1.3947598631603e-08
6	19160	4.51	-1.7761081494427e-08
6	19716	4.61	-2.0570567471623e-08
6	20272	4.71	-2.2507151697937e-08
6	20828	4.81	-2.3691626438449e-08
6	21384	4.91	-2.4239099616352e-08
6	21949	5.01	-2.4253310471067e-08
6	22506	5.11	0.0068264050138822
6	23063	5.21	0.074594790622484
6	23620	5.31	0.19005130280156
6	24177	5.41	0.34050268492081
6	24734	5.51	0.51301635125718
6	25291	5.61	0.69025455388463
6	25848	5.71	0.83572669994751
6	26405	5.81	0.95506452764909
6	26962	5.91	1.0529631117155
6	27527	6.01	1.1332740487145
6	28084	6.11	1.1991569893425
6	28641	6.21	1.2532039476781
6	29198	6.31	1.2975412780619
6	29755	6.41	1.3339133316631
6	30312	6.51	1.3635927194422
6	30869	6.61	1.3702053558546
6	31426	6.71	1.3272611868377
6	31983	6.81	1.2373810863703
6	32540	6.91	1.10404336986
6	33105	7.01	0.93147091462953
6	33662	7.11	0.72451590042988
6	34219	7.21	0.48854317855174
6	34776	7.31	0.22931329168649
6	35333	7.41	-0.044839402561792
6	35890	7.51	-0.30626147784645
6	36447	7.61	-0.52071863285548
6	37004	7.71	-0.69664819536399
6	37561	7.81	-0.84097171286572
6	38118	7.91	-0.95936726507979
6	38683	8.01	-1.0564928550515
6	39240	8.11	-1.1361696676595
6	39797	8.21	-1.2015324054218
6	40354	8.31	-1.2551526162195
6	40911	8.41	-1.299139864987
6	41468	8.51	-1.3352247297291
6	42025	8.61	-1.3648268871716
6	42582	8.71	-1.3891109667025
6	43139	8.81	-1.40903237006
6	43696	8.91	-1.4253748594349
6	44261	9.01	-1.4387813928092
6	44818	9.11	-1.4497794196703
6	45375	9.21	-1.4588016323081
6	45932	9.31	-1.466202989106
6	46489	9.41	-1.4722746795719
6	47046	9.51	-1.4696249147679
6	47603	9.61	-1.3967850640324
6	48160	9.71	-1.2587757642699
6	48717	9.81	-1.066095221946
6	49274	9.91	-0.8292333503487
6	49839	10.01	-0.55852907850635
6	50396	10.11	-0.26404116086489
6	50953	10.21	0.039432698568831
6	51510	10.31	0.30182609741765
6	52067	10.41	0.51708007606237
6	52624	10.51	0.69366331148437
6	53181	10.61	0.83852306844925
6	53738	10.71	0.9573585237959
6	54295	10.81	1.0548449875539
6	54852	10.91	1.1348178423589
6	55417	11.01	1.2004234378345
6	55974	11.11	1.2542428765453
6	56531	11.21	1.2983935615914
6	57088	11.31	1.3346125010074
6	57645	11.41	1.3643246463804
6	58202	11.51	1.3886989543238
6	58759	11.61	1.4086943764056
6	59316	11.71	1.425097586916
6	59873	11.81	1.4385539327701
6	60430	11.91	1.4345627372659
6	60995	12.01	1.3623449188493
6	61552	12.11	1.2299875654136
6	62109	12.21	1.046144839739
6	62666	12.31	0.81967864244703
6	63223	12.41	0.55952045900121
6	63780	12.51	0.27454262944673
6	64337	12.61	-0.022341644921298
6	64894	12.71	-0.28780548061533
6	65451	12.81	-0.50557828690501
6	66008	12.91	-0.68422783830435
6	66573	13.01	-0.83078269406727
6	67130	13.11	-0.95100872083052
6	67687	13.21	-1.0496359374866
6	68244	13.31	-1.1305446069922
6	68801	13.41	-1.1969178964666
6	69358	13.51	-1.2513671116437
6	69915	13.61	-1.2960344327443
6	70472	13.71	-1.3326771936686
6	71029	13.81	-1.3627370202961
6	71586	13.91	-1.387396547964
6	72151	14.01	-1.4076259495617
6	72708	14.11	-1.4242211047701
6	73265	14.21	-1.4378349121323
6	73822	14.31	-1.4490029758559
6	74379	14.41	-1.4542593951862
6	74936	14.51	-1.406745439008
6	75493	14.61	-1.2938574955371
6	76050	14.71	-1.1248409052335
6	76607	14.81	-0.90912582143545
6	77164	14.91	-0.65618298377075
6	77729	15.01	-0.37539052554685
6	78286	15.11	-0.078063005097917
6	78843	15.21	0.20543869667193
6	79400	15.31	0.43800883573084
6	79957	15.41	0.6287973539095
6	80514	15.51	0.78531039043277
6	81071	15.61	0.91370559385275
6	81628	15.71	1.0190343806912
6	82185	15.81	1.1054406719015
6	82742	15.91	1.1763239259945
6	83307	16.01	1.2344728829795
6	83864	16.11	1.2821752809813
6	84421	16.21	1.3213078620826
6	84978	16.31	1.3534102084588
6	85535	16.41	1.37974531373
6	86092	16.51	1.401349272566
6	86649	16.61	1.4190720434684
6	87206	16.71	1.4336108884475
6	87763	16.81	1.445537805208
6	88320	16.91	1.4502949065324
6	88885	17.01	1.3935559567514
6	89442	17.11	1.2733368701429
6	89999	17.21	1.0986742440515
6	90556	17.31	0.87879676591136
6	91113	17.41	0.62298329275663
6	91670	17.51	0.34043137853068
6	92227	17.61	0.043031849076769
6	92784	17.71	-0.23417644595618
6	93341	17.81	-0.46158379949794
6	93898	17.91	-0.64813703535584
6	94463	18.01	-0.80117566522766
6	95020	18.11	-0.92672064505805
6	95577	18.21	-1.0297112558195
6	96134	18.31	-1.114199428261
6	96691	18.41	-1.1835091568834
6	97248	18.51	-1.2403672749233
6	97805	18.61	-1.2870107353912
6	98362	18.71	-1.3252746188865
6	98919	18.81	-1.3566643306593
6	99476	18.91	-1.382414827345
6	100041	19.01	-1.4035392035215
6	100598	19.11	-1.4208685496044
6	101155	19.21	-1.4350846492011
6	101712	19.31	-1.4467468023362
6	102269	19.41	-1.4517201941779
6	102826	19.51	-1.3984004323895
6	103383	19.61	-1.2808993810108
6	103940	19.71	-1.1083308503789
6	104497	19.81	-0.88999806037009
6	105054	19.91	-0.63525086467102
6	105619	20.01	-0.35335363991607
6	106176	20.11	-0.055983891309808
6	106733	20.21	0.22355126013096
6	107290	20.31	0.45286744637067
6	107847	20.41	0.64098658988634
6	108404	20.51	0.79530980944291
6	108961	20.61	0.9219086002382
6	109518	20.71	1.0257637030328
6	110075	20.81	1.1109610600439
6	110632	20.91	1.1808525670215
6	111197	21.01	1.2381879459461
6	111754	21.11	1.2852229265697
6	112311	21.21	1.3238079929597
6	112868	21.31	1.3554611865729
6	113425	21.41	1.3814278301389
6	113982	21.51	1.4027295220426
6	114539	21.61	1.4202043287792
6	115096	21.71	1.4345397567762
6	115653	21.81	1.4462998007623
6	116210	21.91	1.4512038299458
6	116775	22.01	1.3966149622043
6	117332	22.11	1.2781048258539
6	117889	22.21	1.1047586168253
6	118446	22.31	0.88585193073918
6	119003	22.41	0.63070830476057
6	119560	22.51	0.34856734380959
6	120117	22.61	0.051185654370656
6	120674	22.71	-0.22748748564574
6	121231	22.81	-0.45609652228009
6	121788	22.91	-0.64363555681872
6	122353	23.01	-0.79748288496297
6	122910	23.11	-0.92369127904632
6	123467	23.21	-1.0272261205632
6	124024	23.31	-1.1121607517786
6	124581	23.41	-1.1818367320966
6	125138	23.51	-1.2389953040923
6	125695	23.61	-1.2858852414528
6	126252	23.71	-1.3243513218477
6	126809	23.81	-1.3559069055024
6	127366	23.91	-1.3817934749049
6	127931	24.01	-1.4030294781044
6	128488	24.11	-1.4204503972252
6	129045	24.21	-1.434741618608
6	129602	24.31	-1.4464653977726
6	130159	24.41	-1.4513952146881
6	130716	24.51	-1.3972773206763
6	131273	24.61	-1.2791416668563
6	131830	24.71	-1.1060840673021
6	132387	24.81	-0.88739036841652
6	132944	24.91	-0.63239387292597
6	133509	25.01	-0.35034337810913
6	134066	25.11	-0.052966136909305
6	134623	25.21	0.2260268698226
6	135180	25.31	0.45489830857264
6	135737	25.41	0.64265260424108
6	136294	25.51	0.79667652148672
6	136851	25.61	0.92302978013947
6	137408	25.71	1.026683461059
6	137965	25.81	1.1117155819772
6	138522	25.91	1.1814715378073
6	139087	26.01	1.2386957175785
6	139644	26.11	1.2856394761656
6	140201	26.21	1.3241497087126
6	140758	26.31	1.3557415125099
6	141315	26.41	1.381657795045
6	141872	26.51	1.4029181733619
6	142429	26.61	1.4203590885685
6	142986	26.71	1.4346667137069
6	143543	26.81	1.4464039496644
6	144100	26.91	1.4513241957726
6	144665	27.01	1.3970315218256
6	145222	27.11	1.2787568961965
6	145779	27.21	1.1055921925461
6	146336	27.31	0.88681945319387
6	146893	27.41	0.63176835684509
6	147450	27.51	0.34968428947479
6	148007	27.61	0.05230539719534
6	148564	27.71	-0.22656890652399
6	149121	27.81	-0.45534296745871
6	149678	27.91	-0.64301737940262
6	150243	28.01	-0.79697576417068
6	150800	28.11	-0.92327526336611
6	151357	28.21	-1.0268848428069
6	151914	28.31	-1.1118807851517
6	152471	28.41	-1.1816070619506
6	153028	28.51	-1.2388068945789
6	153585	28.61	-1.2857306800289
6	154142	28.71	-1.3242245276459
6	154699	28.81	-1.3558028900945
6	155256	28.91	-1.3817081460427
6	155821	29.01	-1.4029594787171
6	156378	29.11	-1.4203929733469
6	156935	29.21	-1.4346945110272
6	157492	29.31	-1.4464267531491
6	158049	29.41	-1.4513505510322
6	158606	29.51	-1.3971227384761
6	159163	29.61	-1.2788996857307
6	159720	29.71	-1.1057747287555
6	160277	29.81	-0.88703132157555
6	160834	29.91	-0.63200048778391
6	161399	30.01	-0.34992887929981
6	161956	30.11	-0.052550599748002
6	162513	30.21	0.22636775502605
6	163070	30.31	0.45517795316989
6	163627	30.41	0.64288201021121
6	164184	30.51	0.79686471428424
6	164741	30.61	0.92318416378099
6	165298	30.71	1.0268101094166
6	165855	30.81	1.1118194777413
6	166412	30.91	1.1815567685208
6	166977	31.01	1.2387656364488
6	167534	31.11	1.2856968339918
6	168091	31.21	1.324196762107
6	168648	31.31	1.3557801126822
6	169205	31.41	1.3816894606308
6	169762	31.51	1.4029441501705
6	170319	31.61	1.4203803985996
6	170876	31.71	1.4346841953547
6	171433	31.81	1.4464182907037
6	171990	31.91	1.451340770512
6	172555	32.01	1.397088887688
6	173112	32.11	1.2788466960817
6	173669	32.21	1.105706988989
6	174226	32.31	0.88695269654693
6	174783	32.41	0.6319143432556
6	175340	32.51	0.34983811123936
6	175897	32.61	0.052459604302157
6	176454	32.71	-0.22644240298604
6	177011	32.81	-0.45523919049693
6	177568	32.91	-0.64293224614822
6	178133	33.01	-0.7969059252499
6	178690	33.11	-0.92321797112582
6	179247	33.21	-1.0268378432144
6	179804	33.31	-1.1118422291158
6	180361	33.41	-1.181575432572
6	180918	33.51	-1.2387809474717
6	181475	33.61	-1.2857093943634
6	182032	33.71	-1.3242070659867
6	182589	33.81	-1.3557885654517
6	183146	33.91	-1.3816963948457
6	183711	34.01	-1.4029498386424
6	184268	34.11	-1.4203850651278
6	184825	34.21	-1.434688023533
6	185382	34.31	-1.4464214311442
6	185939	34.41	-1.4513444000944
6	186496	34.51	-1.3971014498232
6	187053	34.61	-1.2788663607083
6	187610	34.71	-1.1057321274315
6	188167	34.81	-0.88698187454526
6	188724	34.91	-0.63194631176486
6	189289	35.01	-0.34987179555586
6	189846	35.11	-0.052493373001994
6	190403	35.21	0.22641470089013
6	190960	35.31	0.45521646512974
6	191517	35.41	0.64291360343276
6	192074	35.51	0.79689063173021
6	192631	35.61	0.9232054251143
6	193188	35.71	1.0268275511155
6	193745	35.81	1.1118337860104
6	194302	35.91	1.1815685062846
6	194867	36.01	1.2387752655037
6	195424	36.11	1.2857047331707
6	195981	36.21	1.324203242185
6	196538	36.31	1.3557854286034
6	197095	36.41	1.3816938215378
6	197652	36.51	1.4029477276342
6	198209	36.61	1.4203833333653
6	198766	36.71	1.4346866028841
6	199323	36.81	1.4464202657173
6	199880	36.91	1.4513430531448
6	200445	37.01	1.3970967879747
6	201002	37.11	1.2788590631025
6	201559	37.21	1.1057227984747
6	202116	37.31	0.8869710464964
6	202673	37.41	0.63193444814829
6	203230	37.51	0.34985929519813
6	203787	37.61	0.052480841329228
6	204344	37.71	-0.22642498122742
6	204901	37.81	-0.45522489858705
6	205458	37.91	-0.64292052180406
6	206023	38.01	-0.79689630720416
6	206580	38.11	-0.92321008097898
6	207137	38.21	-1.0268313705456
6	207694	38.31	-1.1118369192733
6	208251	38.41	-1.1815710766513
6	208808	38.51	-1.2387773740993
6	209365	38.61	-1.2857064629529
6	209922	38.71	-1.3242046612092
6	210479	38.81	-1.3557865926966
6	211036	38.91	-1.3816947764997
6	211601	39.01	-1.4029485110349
5	232	1.11	36.55
5	788	1.21	36.55
5	1344	1.31	36.55
5	1900	1.41	36.55
5	2456	1.51	36.55
5	3012	1.61	36.55
5	3568	1.71	36.55
5	4124	1.81	36.55
5	4680	1.91	36.55
5	5244	2.01	36.55
5	5800	2.11	36.55
5	6356	2.21	36.55
5	6912	2.31	36.55
5	7468	2.41	36.55
5	8024	2.51	36.55
5	8580	2.61	36.55
5	9136	2.71	36.55
5	9692	2.81	36.55
5	10248	2.91	36.55
5	10812	3.01	36.55
5	11368	3.11	36.55
5	11924	3.21	36.55
5	12480	3.31	36.55
5	13036	3.41	36.55
5	13592	3.51	36.55
5	14148	3.61	36.55
5	14704	3.71	36.55
5	15260	3.81	36.55
5	15816	3.91	36.55
5	16380	4.01	36.55
5	16936	4.11	36.55
5	17492	4.21	36.55
5	18048	4.31	36.55
5	18604	4.41	36.55
5	19160	4.51	36.55
5	19716	4.61	36.55
5	20272	4.71	36.55
5	20828	4.81	36.55
5	21384	4.91	36.55
5	21949	5.01	36.55
5	22506	5.11	36.55
5	23063	5.21	36.55
5	23620	5.31	36.55
5	24177	5.41	36.55
5	24734	5.51	36.55
5	25291	5.61	36.55
5	25848	5.71	36.55
5	26405	5.81	36.55
5	26962	5.91	36.55
5	27527	6.01	36.55
5	28084	6.11	36.55
5	28641	6.21	36.55
5	29198	6.31	36.55
5	29755	6.41	36.55
5	30312	6.51	36.55
5	30869	6.61	36.55
5	31426	6.71	36.55
5	31983	6.81	36.55
5	32540	6.91	36.55
5	33105	7.01	36.55
5	33662	7.11	36.55
5	34219	7.21	36.55
5	34776	7.31	36.55
5	35333	7.41	36.55
5	35890	7.51	36.55
5	36447	7.61	36.55
5	37004	7.71	36.55
5	37561	7.81	36.55
5	38118	7.91	36.55
5	38683	8.01	36.55
5	39240	8.11	36.55
5	39797	8.21	36.55
5	40354	8.31	36.55
5	40911	8.41	36.55
5	41468	8.51	36.55
5	42025	8.61	36.55
5	42582	8.71	36.55
5	43139	8.81	36.55
5	43696	8.91	36.55
5	44261	9.01	36.55
5	44818	9.11	36.55
5	45375	9.21	36.55
5	45932	9.31	36.55
5	46489	9.41	36.55
5	47046	9.51	36.55
5	47603	9.61	36.55
5	48160	9.71	36.55
5	48717	9.81	36.55
5	49274	9.91	36.55
5	49839	10.01	36.55
5	50396	10.11	36.55
5	50953	10.21	36.55
5	51510	10.31	36.55
5	52067	10.41	36.55
5	52624	10.51	36.55
5	53181	10.61	36.55
5	53738	10.71	36.55
5	54295	10.81	36.55
5	54852	10.91	36.55
5	55417	11.01	36.55
5	55974	11.11	36.55
5	56531	11.21	36.55
5	57088	11.31	36.55
5	57645	11.41	36.55
5	58202	11.51	36.55
5	58759	11.61	36.55
5	59316	11.71	36.55
5	59873	11.81	36.55
5	60430	11.91	36.55
5	60995	12.01	36.55
5	61552	12.11	36.55
5	62109	12.21	36.55
5	62666	12.31	36.55
5	63223	12.41	36.55
5	63780	12.51	36.55
5	64337	12.61	36.55
5	64894	12.71	36.55
5	65451	12.81	36.55
5	66008	12.91	36.55
5	66573	13.01	36.55
5	67130	13.11	36.55
5	67687	13.21	36.55
5	68244	13.31	36.55
5	68801	13.41	36.55
5	69358	13.51	36.55
5	69915	13.61	36.55
5	70472	13.71	36.55
5	71029	13.81	36.55
5	71586	13.91	36.55
5	72151	14.01	36.55
5	72708	14.11	36.55
5	73265	14.21	36.55
5	73822	14.31	36.55
5	74379	14.41	36.55
5	74936	14.51	36.55
5	75493	14.61	36.55
5	76050	14.71	36.55
5	76607	14.81	36.55
5	77164	14.91	36.55
5	77729	15.01	36.55
5	78286	15.11	36.55
5	78843	15.21	36.55
5	79400	15.31	36.55
5	79957	15.41	36.55
5	80514	15.51	36.55
5	81071	15.61	36.55
5	81628	15.71	36.55
5	82185	15.81	36.55
5	82742	15.91	36.55
5	83307	16.01	36.55
5	83864	16.11	36.55
5	84421	16.21	36.55
5	84978	16.31	36.55
5	85535	16.41	36.55
5	86092	16.51	36.55
5	86649	16.61	36.55
5	87206	16.71	36.55
5	87763	16.81	36.55
5	88320	16.91	36.55
5	88885	17.01	36.55
5	89442	17.11	36.55
5	89999	17.21	36.55
5	90556	17.31	36.55
5	91113	17.41	36.55
5	91670	17.51	36.55
5	92227	17.61	36.55
5	92784	17.71	36.55
5	93341	17.81	36.55
5	93898	17.91	36.55
5	94463	18.01	36.55
5	95020	18.11	36.55
5	95577	18.21	36.55
5	96134	18.31	36.55
5	96691	18.41	36.55
5	97248	18.51	36.55
5	97805	18.61	36.55
5	98362	18.71	36.55
5	98919	18.81	36.55
5	99476	18.91	36.55
5	100041	19.01	36.55
5	100598	19.11	36.55
5	101155	19.21	36.55
5	101712	19.31	36.55
5	102269	19.41	36.55
5	102826	19.51	36.55
5	103383	19.61	36.55
5	103940	19.71	36.55
5	104497	19.81	36.55
5	105054	19.91	36.55
5	105619	20.01	36.55
5	106176	20.11	36.55
5	106733	20.21	36.55
5	107290	20.31	36.55
5	107847	20.41	36.55
5	108404	20.51	36.55
5	108961	20.61	36.55
5	109518	20.71	36.55
5	110075	20.81	36.55
5	110632	20.91	36.55
5	111197	21.01	36.55
5	111754	21.11	36.55
5	112311	21.21	36.55
5	112868	21.31	36.55
5	113425	21.41	36.55
5	113982	21.51	36.55
5	114539	21.61	36.55
5	115096	21.71	36.55
5	115653	21.81	36.55
5	116210	21.91	36.55
5	116775	22.01	36.55
5	117332	22.11	36.55
5	117889	22.21	36.55
5	118446	22.31	36.55
5	119003	22.41	36.55
5	119560	22.51	36.55
5	120117	22.61	36.55
5	120674	22.71	36.55
5	121231	22.81	36.55
5	121788	22.91	36.55
5	122353	23.01	36.55
5	122910	23.11	36.55
5	123467	23.21	36.55
5	124024	23.31	36.55
5	124581	23.41	36.55
5	125138	23.51	36.55
5	125695	23.61	36.55
5	126252	23.71	36.55
5	126809	23.81	36.55
5	127366	23.91	36.55
5	127931	24.01	36.55
5	128488	24.11	36.55
5	129045	24.21	36.55
5	129602	24.31	36.55
5	130159	24.41	36.55
5	130716	24.51	36.55
5	131273	24.61	36.55
5	131830	24.71	36.55
5	132387	24.81	36.55
5	132944	24.91	36.55
5	133509	25.01	36.55
5	134066	25.11	36.55
5	134623	25.21	36.55
5	135180	25.31	36.55
5	135737	25.41	36.55
5	136294	25.51	36.55
5	136851	25.61	36.55
5	137408	25.71	36.55
5	137965	25.81	36.55
5	138522	25.91	36.55
5	139087	26.01	36.55
5	139644	26.11	36.55
5	140201	26.21	36.55
5	140758	26.31	36.55
5	141315	26.41	36.55
5	141872	26.51	36.55
5	142429	26.61	36.55
5	142986	26.71	36.55
5	143543	26.81	36.55
5	144100	26.91	36.55
5	144665	27.01	36.55
5	145222	27.11	36.55
5	145779	27.21	36.55
5	146336	27.31	36.55
5	146893	27.41	36.55
5	147450	27.51	36.55
5	148007	27.61	36.55
5	148564	27.71	36.55
5	149121	27.81	36.55
5	149678	27.91	36.55
5	150243	28.01	36.55
5	150800	28.11	36.55
5	151357	28.21	36.55
5	151914	28.31	36.55
5	152471	28.41	36.55
5	153028	28.51	36.55
5	153585	28.61	36.55
5	154142	28.71	36.55
5	154699	28.81	36.55
5	155256	28.91	36.55
5	155821	29.01	36.55
5	156378	29.11	36.55
5	156935	29.21	36.55
5	157492	29.31	36.55
5	158049	29.41	36.55
5	158606	29.51	36.55
5	159163	29.61	36.55
5	159720	29.71	36.55
5	160277	29.81	36.55
5	160834	29.91	36.55
5	161399	30.01	36.55
5	161956	30.11	36.55
5	162513	30.21	36.55
5	163070	30.31	36.55
5	163627	30.41	36.55
5	164184	30.51	36.55
5	164741	30.61	36.55
5	165298	30.71	36.55
5	165855	30.81	36.55
5	166412	30.91	36.55
5	166977	31.01	36.55
5	167534	31.11	36.55
5	168091	31.21	36.55
5	168648	31.31	36.55
5	169205	31.41	36.55
5	169762	31.51	36.55
5	170319	31.61	36.55
5	170876	31.71	36.55
5	171433	31.81	36.55
5	171990	31.91	36.55
5	172555	32.01	36.55
5	173112	32.11	36.55
5	173669	32.21	36.55
5	174226	32.31	36.55
5	174783	32.41	36.55
5	175340	32.51	36.55
5	175897	32.61	36.55
5	176454	32.71	36.55
5	177011	32.81	36.55
5	177568	32.91	36.55
5	178133	33.01	36.55
5	178690	33.11	36.55
5	179247	33.21	36.55
5	179804	33.31	36.55
5	180361	33.41	36.55
5	180918	33.51	36.55
5	181475	33.61	36.55
5	182032	33.71	36.55
5	182589	33.81	36.55
5	183146	33.91	36.55
5	183711	34.01	36.55
5	184268	34.11	36.55
5	184825	34.21	36.55
5	185382	34.31	36.55
5	185939	34.41	36.55
5	186496	34.51	36.55
5	187053	34.61	36.55
5	187610	34.71	36.55
5	188167	34.81	36.55
5	188724	34.91	36.55
5	189289	35.01	36.55
5	189846	35.11	36.55
5	190403	35.21	36.55
5	190960	35.31	36.55
5	191517	35.41	36.55
5	192074	35.51	36.55
5	192631	35.61	36.55
5	193188	35.71	36.55
5	193745	35.81	36.55
5	194302	35.91	36.55
5	194867	36.01	36.55
5	195424	36.11	36.55
5	195981	36.21	36.55
5	196538	36.31	36.55
5	197095	36.41	36.55
5	197652	36.51	36.55
5	198209	36.61	36.55
5	198766	36.71	36.55
5	199323	36.81	36.55
5	199880	36.91	36.55
5	200445	37.01	36.55
5	201002	37.11	36.55
5	201559	37.21	36.55
5	202116	37.31	36.55
5	202673	37.41	36.55
5	203230	37.51	36.55
5	203787	37.61	36.55
5	204344	37.71	36.55
5	204901	37.81	36.55
5	205458	37.91	36.55
5	206023	38.01	36.55
5	206580	38.11	36.55
5	207137	38.21	36.55
5	207694	38.31	36.55
5	208251	38.41	36.55
5	208808	38.51	36.55
5	209365	38.61	36.55
5	209922	38.71	36.55
5	210479	38.81	36.55
5	211036	38.91	36.55
5	211601	39.01	36.55
4	232	1.11	146.56817703274
4	788	1.21	148.79039917195
4	1344	1.31	151.01262131388
4	1900	1.41	153.23484345947
4	2456	1.51	155.45706560945
4	3012	1.61	157.67928776432
4	3568	1.71	159.90150992442
4	4124	1.81	162.12373208991
4	4680	1.91	164.34595426084
4	5244	2.01	166.56817643716
4	5800	2.11	168.79039861873
4	6356	2.21	171.01262080532
4	6912	2.31	173.23484299668
4	7468	2.41	175.4570651925
4	8024	2.51	177.67928739246
4	8580	2.61	179.90150959621
4	9136	2.71	182.1237318034
4	9692	2.81	184.34595401368
4	10248	2.91	186.56817622671
4	10812	3.01	188.79039844217
4	11368	3.11	191.01262065973
4	11924	3.21	193.23484287911
4	12480	3.31	195.45706510002
4	13036	3.41	197.67928732222
4	13592	3.51	199.90150954548
4	14148	3.61	202.12373176958
4	14704	3.71	204.34595399434
4	15260	3.81	206.5681762196
4	15816	3.91	208.79039844521
4	16380	4.01	211.01262067105
4	16936	4.11	213.23484289702
4	17492	4.21	215.45706512301
4	18048	4.31	217.67928734897
4	18604	4.41	219.90150957483
4	19160	4.51	222.12373180054
4	19716	4.61	224.34595402606
4	20272	4.71	226.56817625138
4	20828	4.81	228.79039847647
4	21384	4.91	231.01262070132
4	21949	5.01	233.23484292593
4	22506	5.11	235.45706651558
4	23063	5.21	237.67951660671
4	23620	5.31	239.90296679099
4	24177	5.41	242.12864169608
4	24734	5.51	244.35809130571
4	25291	5.61	246.59305048233
4	25848	5.71	248.8352047105
4	26405	5.81	251.08595603066
4	26962	5.91	253.34645473614
4	27527	6.01	255.61764446808
4	28084	6.11	257.90029934091
4	28641	6.21	260.19505439808
4	29198	6.31	262.5024305964
4	29755	6.41	264.82285530191
4	30312	6.51	267.15667907194
4	30869	6.61	269.5041596564
4	31426	6.71	271.86525062235
4	31983	6.81	274.23942545325
4	32540	6.91	276.62569537277
4	33105	7.01	279.02264566809
4	33662	7.11	281.42847922473
4	34219	7.21	283.84106611674
4	34776	7.31	286.25799808477
4	35333	7.41	288.67664719186
4	35890	7.51	291.09430051078
4	36447	7.61	293.50846023516
4	37004	7.71	295.9170592197
4	37561	7.81	298.31840168528
4	38118	7.91	300.71109650234
4	38683	8.01	303.09400246016
4	39240	8.11	305.46618336843
4	39797	8.21	307.82687122504
4	40354	8.31	310.17543600075
4	40911	8.41	312.51136085216
4	41468	8.51	314.83422178766
4	42025	8.61	317.14367098644
4	42582	8.71	319.43942311432
4	43139	8.81	321.72124409785
4	43696	8.91	323.98894191531
4	44261	9.01	326.242359042
4	44818	9.11	328.48136625277
4	45375	9.21	330.70585753804
4	45932	9.31	332.91574593298
4	46489	9.41	335.11096009617
4	47046	9.51	337.29144376561
4	47603	9.61	339.45739224166
4	48160	9.71	341.60966684565
4	48717	9.81	343.74975933998
4	49274	9.91	345.8796868377
4	49839	10.01	348.0018871783
4	50396	10.11	350.11911607863
4	50953	10.21	352.23434629795
4	51510	10.31	354.35050605017
4	52067	10.41	356.47011664444
4	52624	10.51	358.59525290662
4	53181	10.61	360.72761691658
4	53738	10.71	362.86860497264
4	54295	10.81	365.01936252576
4	54852	10.91	367.18082924469
4	55417	11.01	369.35377598509
4	55974	11.11	371.53883511707
4	56531	11.21	373.73652540441
4	57088	11.31	375.94727241407
4	57645	11.41	378.17142525919
4	58202	11.51	380.40927033414
4	58759	11.61	382.66104258205
4	59316	11.71	384.92693473813
4	59873	11.81	387.20710491237
4	60430	11.91	389.50166801062
4	60995	12.01	391.81041900312
4	61552	12.11	394.1325125739
4	62109	12.21	396.46651962161
4	62666	12.31	398.81051425564
4	63223	12.41	401.16216258724
4	63780	12.51	403.5188119528
4	64337	12.61	405.87758014413
4	64894	12.71	408.23557841209
4	65451	12.81	410.59026098226
4	66008	12.91	412.93952874988
4	66573	13.01	415.28165971793
4	67130	13.11	417.61524124909
4	67687	13.21	419.93911448872
4	68244	13.31	422.2523287724
4	68801	13.41	424.55410422419
4	69358	13.51	426.84380107419
4	69915	13.61	429.12089448823
4	70472	13.71	431.38495391951
4	71029	13.81	433.6356261697
4	71586	13.91	435.87262149313
4	72151	14.01	438.09570219745
4	72708	14.11	440.30467329214
4	73265	14.21	442.49937481705
4	73822	14.31	444.67967554915
4	74379	14.41	446.8454686209
4	74936	14.51	448.99682057016
4	75493	14.61	451.13434670295
4	76050	14.71	453.25929075388
4	76607	14.81	455.3734385403
4	77164	14.91	457.47902354642
4	77729	15.01	459.57863237432
4	78286	15.11	461.67511094239
4	78843	15.21	463.77140212437
4	79400	15.31	465.87021507349
4	79957	15.41	467.97379152549
4	80514	15.51	470.08397048448
4	81071	15.61	472.20226057437
4	81628	15.71	474.32989939219
4	82185	15.81	476.46790219859
4	82742	15.91	478.61710186089
4	83307	16.01	480.7781816204
4	83864	16.11	482.95170197296
4	84421	16.21	485.13812272037
4	84978	16.31	487.33782106028
4	85535	16.41	489.55110642612
4	86092	16.51	491.77823266109
4	86649	16.61	494.019408005
4	87206	16.71	496.27480328707
4	87763	16.81	498.54455864673
4	88320	16.91	500.82878803265
4	88885	17.01	503.12739494085
4	89442	17.11	505.43968100107
4	89999	17.21	507.76433255207
4	90556	17.31	510.099510297
4	91113	17.41	512.44294172384
4	91670	17.51	514.79201375799
4	92227	17.61	517.14386493206
4	92784	17.71	519.49556960096
4	93341	17.81	521.84447550052
4	93898	17.91	524.18839065892
4	94463	18.01	526.52551689579
4	95020	18.11	528.85437907691
4	95577	18.21	531.17376707846
4	96134	18.31	533.48268817739
4	96691	18.41	535.78032799506
4	97248	18.51	538.06601845733
4	97805	18.61	540.3392115107
4	98362	18.71	542.59945756042
4	98919	18.81	544.84638778222
4	99476	18.91	547.07969961172
4	100041	19.01	549.29914484074
4	100598	19.11	551.50451985213
4	101155	19.21	553.69565760891
4	101712	19.31	555.87242108258
4	102269	19.41	558.03469878075
4	102826	19.51	560.18257586934
4	103383	19.61	562.31671988534
4	103940	19.71	564.4384185629
4	104497	19.81	566.54949136176
4	105054	19.91	568.65219630855
4	105619	20.01	570.74913664251
4	106176	20.11	572.84316804191
4	106733	20.21	574.9372224987
4	107290	20.31	577.03397330902
4	107847	20.41	579.13563084387
4	108404	20.51	581.24400837735
4	108961	20.61	583.36059342578
4	109518	20.71	585.48660627066
4	110075	20.81	587.62304796781
4	110632	20.91	589.77073973171
4	111197	21.01	591.93035524424
4	111754	21.11	594.10244715918
4	112311	21.21	596.28746884513
4	112868	21.31	598.48579222226
4	113425	21.41	600.69772239462
4	113982	21.51	602.92350965383
4	114539	21.61	605.16335932617
4	115096	21.71	607.41743985072
4	115653	21.81	609.68588940618
4	116210	21.91	611.96882039857
4	116775	22.01	614.26614353568
4	117332	22.11	616.57717985778
4	117889	22.21	618.90063200465
4	118446	22.31	621.23467314922
4	119003	22.41	623.57703988254
4	119560	22.51	625.92512530805
4	120117	22.61	628.27607159125
4	120674	22.71	630.62694908483
4	121231	22.81	632.97509228373
4	121788	22.91	635.31829763315
4	122353	23.01	637.65475745064
4	122910	23.11	639.98298880697
4	123467	23.21	642.30177518368
4	124024	23.31	644.61011861191
4	124581	23.41	646.90720040961
4	125138	23.51	649.19234897235
4	125695	23.61	651.46501335058
4	126252	23.71	653.72474157376
4	126809	23.81	655.97116286865
4	127366	23.91	658.20397307203
4	127931	24.01	660.42292266412
4	128488	24.11	662.62780695182
4	129045	24.21	664.81845801546
4	129602	24.31	666.99473810245
4	130159	24.41	669.15653514521
4	130716	24.51	671.30393690434
4	131273	24.61	673.43761810045
4	131830	24.71	675.55887252143
4	132387	24.81	677.6695242602
4	132944	24.91	679.77183472818
4	133509	25.01	681.86840946455
4	134066	25.11	683.96210550347
4	134623	25.21	686.05585336215
4	135180	25.31	688.15232143668
4	135737	25.41	690.25371581116
4	136294	25.51	692.36184624292
4	136851	25.61	694.47819736333
4	137408	25.71	696.60398708719
4	137965	25.81	698.74021452886
4	138522	25.91	700.88769931007
4	139087	26.01	703.04711380615
4	139644	26.11	705.21900959904
4	140201	26.21	707.40383917806
4	140758	26.31	709.60197374202
4	141315	26.41	711.81371780328
4	141872	26.51	714.03932116801
4	142429	26.61	716.27898876427
4	142986	26.71	718.53288870447
4	143543	26.81	720.80115889931
4	144100	26.91	723.08391154196
4	144665	27.01	725.38105830343
4	145222	27.11	727.69192288995
4	145779	27.21	730.01521018793
4	146336	27.31	732.3490950898
4	146893	27.41	734.69131544284
4	147450	27.51	737.03926520414
4	148007	27.61	739.39008704254
4	148564	27.71	741.74085076362
4	149121	27.81	744.08888904419
4	149678	27.91	746.43199673877
4	150243	28.01	748.76836486
4	150800	28.11	751.09650940819
4	151357	28.21	753.41521298673
4	151914	28.31	755.72347690635
4	152471	28.41	758.02048189404
4	153028	28.51	760.30555586054
4	153585	28.61	762.57814745861
4	154142	28.71	764.83780439144
4	154699	28.81	767.08415561814
4	155256	28.91	769.31689675593
4	155821	29.01	771.53577810492
4	156378	29.11	773.74059482424
4	156935	29.21	775.93117887301
4	157492	29.31	778.10739239918
4	158049	29.41	780.26912325623
4	158606	29.51	782.41645956219
4	159163	29.61	784.55007702703
4	159720	29.71	786.67127027238
4	160277	29.81	788.78186402925
4	160834	29.91	790.88412017527
4	161399	30.01	792.98064456641
4	161956	30.11	795.07429442363
4	162513	30.21	797.16800006112
4	163070	30.31	799.26442920023
4	163627	30.41	801.36578733478
4	164184	30.51	803.47388373784
4	164741	30.61	805.59020264354
4	165298	30.71	807.71596164079
4	165855	30.81	809.8521595766
4	166412	30.91	811.99961585341
4	166977	31.01	814.15900266662
4	167534	31.11	816.33087145058
4	168091	31.21	818.51567457354
4	168648	31.31	820.713783135
4	169205	31.41	822.92550156582
4	169762	31.51	825.15107960532
4	170319	31.61	827.39072212676
4	170876	31.71	829.64459719753
4	171433	31.81	831.91284269146
4	171990	31.91	834.19557077238
4	172555	32.01	836.49269324399
4	173112	32.11	838.80353417963
4	173669	32.21	841.12679877514
4	174226	32.31	843.46066215975
4	174783	32.41	845.80286235374
4	175340	32.51	848.15079343177
4	175897	32.61	850.501598132
4	176454	32.71	852.85234618467
4	177011	32.81	855.20037001618
4	177568	32.91	857.543464262
4	178133	33.01	859.87981975508
4	178690	33.11	862.20795234829
4	179247	33.21	864.52664452409
4	179804	33.31	866.83489749399
4	180361	33.41	869.1318919036
4	180918	33.51	871.41695559691
4	181475	33.61	873.68953717187
4	182032	33.71	875.94918428678
4	182589	33.81	878.19552586387
4	183146	33.91	880.42825749012
4	183711	34.01	882.64712944085
4	184268	34.11	884.85193685481
4	184825	34.21	887.04251167446
4	185382	34.31	889.21871603405
4	185939	34.41	891.38043777616
4	186496	34.51	893.52776506807
4	187053	34.61	895.661373756
4	187610	34.71	897.78255857639
4	188167	34.81	899.89314434813
4	188724	34.91	901.99539301307
4	189289	35.01	904.09191047079
4	189846	35.11	906.18555396798
4	190403	35.21	908.27925379087
4	190960	35.31	910.37567756789
4	191517	35.41	912.47703071156
4	192074	35.51	914.58512242828
4	192631	35.61	916.70143689744
4	193188	35.71	918.8271916631
4	193745	35.81	920.96338553543
4	194302	35.91	923.11083788669
4	194867	36.01	925.27022088748
4	195424	36.11	927.44208595184
4	195981	36.21	929.62688543134
4	196538	36.31	931.82499041179
4	197095	36.41	934.03670531285
4	197652	36.51	936.26227986463
4	198209	36.61	938.50191893282
4	198766	36.71	940.75579057864
4	199323	36.81	943.02403267081
4	199880	36.91	945.30675736916
4	200445	37.01	947.60387649562
4	201002	37.11	949.91471417412
4	201559	37.21	952.2379756431
4	202116	37.31	954.57183606441
4	202673	37.41	956.91403348215
4	203230	37.51	959.26196198716
4	203787	37.61	961.61276432716
4	204344	37.71	963.96351022201
4	204901	37.81	966.31153206364
4	205458	37.91	968.65462445733
4	206023	38.01	970.99097821128
4	206580	38.11	973.31910915809
4	207137	38.21	975.63779976352
4	207694	38.31	977.94605122546
4	208251	38.41	980.24304417829
4	208808	38.51	982.52810645679
4	209365	38.61	984.8006866514
4	209922	38.71	987.06033241421
4	210479	38.81	989.30667266237
4	211036	38.91	991.53940297872
4	211601	39.01	993.75827363514
3	232	1.11	22.222221380388
3	788	1.21	22.222221400033
3	1344	1.31	22.222221430895
3	1900	1.41	22.222221470405
3	2456	1.51	22.222221516302
3	3012	1.61	22.222221566615
3	3568	1.71	22.222221619648
3	4124	1.81	22.222221673961
3	4680	1.91	22.22222172835
3	5244	2.01	22.222221781827
3	5800	2.11	22.222221833594
3	6356	2.21	22.222221883033
3	6912	2.31	22.222221929673
3	7468	2.41	22.222221973181
3	8024	2.51	22.22222201334
3	8580	2.61	22.22222205003
3	9136	2.71	22.222222083218
3	9692	2.81	22.222222112937
3	10248	2.91	22.222222139276
3	10812	3.01	22.222222162372
3	11368	3.11	22.222222182391
3	11924	3.21	22.222222199529
3	12480	3.31	22.222222213995
3	13036	3.41	22.222222226009
3	13592	3.51	22.222222235797
3	14148	3.61	22.222222243584
3	14704	3.71	22.222222249588
3	15260	3.81	22.222222254023
3	15816	3.91	22.22222225709
3	16380	4.01	22.222222258982
3	16936	4.11	22.222222259874
3	17492	4.21	22.22222225993
3	18048	4.31	22.2222222593
3	18604	4.41	22.222222258118
3	19160	4.51	22.222222256505
3	19716	4.61	22.222222254566
3	20272	4.71	22.222222252396
3	20828	4.81	22.222222250075
3	21384	4.91	22.222222247671
3	21949	5.01	22.222222245242
3	22506	5.11	22.222290507125
3	23063	5.21	22.226504077641
3	23620	5.31	22.240220338524
3	24177	5.41	22.267500757653
3	24734	5.51	22.311166408855
3	25291	5.61	22.372508246834
3	25848	5.71	22.449772173803
3	26405	5.81	22.540103259952
3	26962	5.91	22.641153967919
3	27527	6.01	22.750998499419
3	28084	6.11	22.868057029105
3	28641	6.21	22.991033549938
3	29198	6.31	23.118864884746
3	29755	6.41	23.250678857945
3	30312	6.51	23.385758398132
3	30869	6.61	23.522833432233
3	31426	6.71	23.657796347927
3	31983	6.81	23.785829581157
3	32540	6.91	23.902426182221
3	33105	7.01	24.003469344582
3	33662	7.11	24.085300499944
3	34219	7.21	24.144775797594
3	34776	7.31	24.179310887614
3	35333	7.41	24.18693697487
3	35890	7.51	24.167648012512
3	36447	7.61	24.124876590017
3	37004	7.71	24.062841371271
3	37561	7.81	23.985003130021
3	38118	7.91	23.894200906128
3	38683	8.01	23.792763701114
3	39240	8.11	23.682602107418
3	39797	8.21	23.565283476299
3	40354	8.31	23.442093581698
3	40911	8.41	23.314087206082
3	41468	8.51	23.182129638453
3	42025	8.61	23.046930717174
3	42582	8.71	22.90907275694
3	43139	8.81	22.769033458618
3	43696	8.91	22.627204703306
3	44261	9.01	22.483907969993
3	44818	9.11	22.339406983423
3	45375	9.21	22.193918089742
3	45932	9.31	22.047618768141
3	46489	9.41	21.900654613374
3	47046	9.51	21.753242751854
3	47603	9.61	21.609901385757
3	48160	9.71	21.477532883517
3	48717	9.81	21.362073971413
3	49274	9.91	21.268410541013
3	49839	10.01	21.200386497448
3	50396	10.11	21.160826131916
3	50953	10.21	21.151517345739
3	51510	10.31	21.170320646314
3	52067	10.41	21.212693656992
3	52624	10.51	21.274402039281
3	53181	10.61	21.351972160799
3	53738	10.71	21.442554433126
3	54295	10.81	21.543811201247
3	54852	10.91	21.653824773844
3	55417	11.01	21.771021976106
3	55974	11.11	21.894112256751
3	56531	11.21	22.022036914228
3	57088	11.31	22.15392744452
3	57645	11.41	22.289071371833
3	58202	11.51	22.426884217862
3	58759	11.61	22.566886506821
3	59316	11.71	22.708684901566
3	59873	11.81	22.851956728639
3	60430	11.91	22.996030636022
3	60995	12.01	23.135871741664
3	61552	12.11	23.265091831195
3	62109	12.21	23.37815370659
3	62666	12.31	23.470398479481
3	63223	12.41	23.538058615042
3	63780	12.51	23.578257676094
3	64337	12.61	23.589039899577
3	64894	12.71	23.571771817424
3	65451	12.81	23.530658220569
3	66008	12.91	23.469982996268
3	66573	13.01	23.39326042415
3	67130	13.11	23.303373437532
3	67687	13.21	23.20268704586
3	68244	13.31	23.093141380613
3	68801	13.41	22.97632802535
3	69358	13.51	22.853552632938
3	69915	13.61	22.725886293488
3	70472	13.71	22.594207673951
3	71029	13.81	22.459237587264
3	71586	13.91	22.321567351098
3	72151	14.01	22.181682051897
3	72708	14.11	22.039979629502
3	73265	14.21	21.896786533182
3	73822	14.31	21.752370565044
3	74379	14.41	21.606990468916
3	74936	14.51	21.46377531614
3	75493	14.61	21.329003640752
3	76050	14.71	21.208703411767
3	76607	14.81	21.107966374326
3	77164	14.91	21.030937646541
3	77729	15.01	20.980819133086
3	78286	15.11	20.959864153028
3	78843	15.21	20.968113302143
3	79400	15.31	21.001828232614
3	79957	15.41	21.056433973525
3	80514	15.51	21.128177455263
3	81071	15.61	21.213979853553
3	81628	15.71	21.311315460134
3	82185	15.81	21.418112314529
3	82742	15.91	21.532670687482
3	83307	16.01	21.65359620899
3	83864	16.11	21.779745009989
3	84421	16.21	21.910178719438
3	84978	16.31	22.04412754625
3	85535	16.41	22.180959993615
3	86092	16.51	22.320158014196
3	86649	16.61	22.461296628745
3	87206	16.71	22.604027206256
3	87763	16.81	22.748063747876
3	88320	16.91	22.893121062247
3	88885	17.01	23.035415892366
3	89442	17.11	23.168450652444
3	89999	17.21	23.28637522879
3	90556	17.31	23.384255235879
3	91113	17.41	23.458083279214
3	91670	17.51	23.504776599185
3	92227	17.61	23.522191087294
3	92784	17.71	23.510795234811
3	93341	17.81	23.474498911582
3	93898	17.91	23.417775529511
3	94463	18.01	23.344294844447
3	95020	18.11	23.257067334362
3	95577	18.21	23.158562639743
3	96134	18.31	23.050806725964
3	96691	18.41	22.935461590275
3	97248	18.51	22.813890649294
3	97805	18.61	22.687212379529
3	98362	18.71	22.556344321276
3	98919	18.81	22.422039177162
3	99476	18.91	22.284914425505
3	100041	19.01	22.145476613593
3	100598	19.11	22.004141286635
3	101155	19.21	21.861249336433
3	101712	19.31	21.717080413001
3	102269	19.41	21.571909863106
3	102826	19.51	21.429278340793
3	103383	19.61	21.295604178514
3	103940	19.71	21.176803340552
3	104497	19.81	21.077868481133
3	105054	19.91	21.002857998561
3	105619	20.01	20.954898781713
3	106176	20.11	20.936175392548
3	106733	20.21	20.946407816827
3	107290	20.31	20.981749723707
3	107847	20.41	21.03769015195
3	108404	20.51	21.110528542171
3	108961	20.61	21.197229146774
3	109518	20.71	21.295301595376
3	110075	20.81	21.402702916871
3	110632	20.91	21.517757163382
3	111197	21.01	21.639089473919
3	111754	21.11	21.765571983607
3	112311	21.21	21.896279450413
3	112868	21.31	22.030452853606
3	113425	21.41	22.167469531823
3	113982	21.51	22.306818685871
3	114539	21.61	22.448081282503
3	115096	21.71	22.590913568504
3	115653	21.81	22.735033546511
3	116210	21.91	22.880162447437
3	116775	22.01	23.022670267421
3	117332	22.11	23.156108357089
3	117889	22.21	23.274585173836
3	118446	22.31	23.373129675149
3	119003	22.41	23.447702381669
3	119560	22.51	23.495192775121
3	120117	22.61	23.513431301619
3	120674	22.71	23.502767871627
3	121231	22.81	23.467072389944
3	121788	22.91	23.410841907214
3	122353	23.01	23.337765571286
3	122910	23.11	23.250869768327
3	123467	23.21	23.152637189085
3	124024	23.31	23.045104504693
3	124581	23.41	22.929942494852
3	125138	23.51	22.80852178085
3	125695	23.61	22.68196674953
3	126252	23.71	22.551199789728
3	126809	23.81	22.416977581555
3	127366	23.91	22.279920866256
3	127931	24.01	22.140538867856
3	128488	24.11	21.999249327416
3	129045	24.21	21.856394938108
3	129602	24.31	21.71225682769
3	130159	24.41	21.567112496496
3	130716	24.51	21.424558793937
3	131273	24.61	21.291033120082
3	131830	24.71	21.172436080201
3	132387	24.81	21.073746736753
3	132944	24.91	20.999011589812
3	133509	25.01	20.951347232722
3	134066	25.11	20.932928788829
3	134623	25.21	20.943432285463
3	135180	25.31	20.978996566089
3	135737	25.41	21.035119418254
3	136294	25.51	21.108107459632
3	136851	25.61	21.194930830305
3	137408	25.71	21.293103989846
3	137965	25.81	21.400587929387
3	138522	25.91	21.515709951472
3	139087	26.01	21.637097861586
3	139644	26.11	21.763625982293
3	140201	26.21	21.89437086602
3	140758	26.31	22.028574964121
3	141315	26.41	22.165616822853
3	141872	26.51	22.304986633695
3	142429	26.61	22.446266176092
3	142986	26.71	22.589112363523
3	143543	26.81	22.733243745544
3	144100	26.91	22.878382351008
3	144665	27.01	23.02091902685
3	145222	27.11	23.154412198376
3	145779	27.21	23.272964623492
3	146336	27.31	23.371600215963
3	146893	27.41	23.446275081122
3	147450	27.51	23.4938748801
3	148007	27.61	23.512226556393
3	148564	27.71	23.501663708253
3	149121	27.81	23.46605073872
3	149678	27.91	23.409887944692
3	150243	28.01	23.336867137076
3	150800	28.11	23.250016886674
3	151357	28.21	23.151821676394
3	151914	28.31	23.044319647566
3	152471	28.41	22.929182785965
3	153028	28.51	22.80778270228
3	153585	28.61	22.681244595004
3	154142	28.71	22.550491518813
3	154699	28.81	22.416280700038
3	155256	28.91	22.279233328011
3	155821	29.01	22.139858994348
3	156378	29.11	21.998575741663
3	156935	29.21	21.855726510503
3	157492	29.31	21.711592631564
3	158049	29.41	21.566451901273
3	158606	29.51	21.42390890677
3	159163	29.61	21.290403673535
3	159720	29.71	21.171834691746
3	160277	29.81	21.073179152124
3	160834	29.91	20.998481916211
3	161399	30.01	20.950858159518
3	161956	30.11	20.932481705563
3	162513	30.21	20.943022528176
3	163070	30.31	20.978617429104
3	163627	30.41	21.034765400583
3	164184	30.51	21.107774048547
3	164741	30.61	21.194614323799
3	165298	30.71	21.292801350981
3	165855	30.81	21.400296666818
3	166412	30.91	21.515428021429
3	166977	31.01	21.636823587464
3	167534	31.11	21.763357988693
3	168091	31.21	21.894108024635
3	168648	31.31	22.028316349348
3	169205	31.41	22.165361675373
3	169762	31.51	22.304734330603
3	170319	31.61	22.446016206389
3	170876	31.71	22.588864308011
3	171433	31.81	22.732997260337
3	171990	31.91	22.878137202098
3	172555	32.01	23.020677851725
3	173112	32.11	23.154178608822
3	173669	32.21	23.272741446377
3	174226	32.31	23.371389583548
3	174783	32.41	23.446078517603
3	175340	32.51	23.493693383512
3	175897	32.61	23.512060642398
3	176454	32.71	23.501511646042
3	177011	32.81	23.465910039798
3	177568	32.91	23.409756567623
3	178133	33.01	23.336743407174
3	178690	33.11	23.249899430112
3	179247	33.21	23.151709366157
3	179804	33.31	23.044211559107
3	180361	33.41	22.929078160835
3	180918	33.51	22.807680918285
3	181475	33.61	22.681145141731
3	182032	33.71	22.550393977543
3	182589	33.81	22.416184727275
3	183146	33.91	22.279138641972
3	183711	34.01	22.139765363871
3	184268	34.11	21.998482977113
3	184825	34.21	21.855634456316
3	185382	34.31	21.711501160121
3	185939	34.41	21.566360925734
3	186496	34.51	21.423819405916
3	187053	34.61	21.29031698771
3	187610	34.71	21.17175187001
3	188167	34.81	21.073100985766
3	188724	34.91	20.998408970865
3	189289	35.01	20.950790805558
3	189846	35.11	20.932420134352
3	190403	35.21	20.942966097406
3	190960	35.31	20.978565215287
3	191517	35.41	21.034716646136
3	192074	35.51	21.107728131987
3	192631	35.61	21.194570735296
3	193188	35.71	21.292759672295
3	193745	35.81	21.400256554848
3	194302	35.91	21.515389194711
3	194867	36.01	21.636785815101
3	195424	36.11	21.763321081268
3	195981	36.21	21.894071826761
3	196538	36.31	22.028280733552
3	197095	36.41	22.165326537085
3	197652	36.51	22.304699584037
3	198209	36.61	22.445981781171
3	198766	36.71	22.588830146411
3	199323	36.81	22.732963314995
3	199880	36.91	22.878103440787
3	200445	37.01	23.020644637675
3	201002	37.11	23.154146439438
3	201559	37.21	23.272710710969
3	202116	37.31	23.371360575766
3	202673	37.41	23.446051447355
3	203230	37.51	23.493668388244
3	203787	37.61	23.512037793127
3	204344	37.71	23.501490704405
3	204901	37.81	23.465890663085
3	205458	37.91	23.409738474693
3	206023	38.01	23.336726367393
3	206580	38.11	23.249883254281
3	207137	38.21	23.151693899064
3	207694	38.31	23.044196673428
3	208251	38.41	22.929063752117
3	208808	38.51	22.807666900841
3	209365	38.61	22.681131445268
3	209922	38.71	22.550380544397
3	210479	38.81	22.41617151014
3	211036	38.91	22.279125602042
3	211601	39.01	22.13975246931
1	232	1.11	0
1	788	1.21	0
1	1344	1.31	0
1	1900	1.41	0
1	2456	1.51	0
1	3012	1.61	0
1	3568	1.71	0
1	4124	1.81	0
1	4680	1.91	0
1	5244	2.01	0
1	5800	2.11	0
1	6356	2.21	0
1	6912	2.31	0
1	7468	2.41	0
1	8024	2.51	0
1	8580	2.61	0
1	9136	2.71	0
1	9692	2.81	0
1	10248	2.91	0
1	10812	3.01	0
1	11368	3.11	0
1	11924	3.21	0
1	12480	3.31	0
1	13036	3.41	0
1	13592	3.51	0
1	14148	3.61	0
1	14704	3.71	0
1	15260	3.81	0
1	15816	3.91	0
1	16380	4.01	0
1	16936	4.11	0
1	17492	4.21	0
1	18048	4.31	0
1	18604	4.41	0
1	19160	4.51	0
1	19716	4.61	0
1	20272	4.71	0
1	20828	4.81	0
1	21384	4.91	0
1	21949	5.01	0
1	22506	5.11	0
1	23063	5.21	0
1	23620	5.31	0
1	24177	5.41	0
1	24734	5.51	0
1	25291	5.61	0
1	25848	5.71	0
1	26405	5.81	0
1	26962	5.91	0
1	27527	6.01	0
1	28084	6.11	0
1	28641	6.21	0
1	29198	6.31	0
1	29755	6.41	0
1	30312	6.51	0
1	30869	6.61	0
1	31426	6.71	0
1	31983	6.81	0
1	32540	6.91	0
1	33105	7.01	0
1	33662	7.11	0
1	34219	7.21	0
1	34776	7.31	0
1	35333	7.41	0
1	35890	7.51	0
1	36447	7.61	0
1	37004	7.71	0
1	37561	7.81	0
1	38118	7.91	0
1	38683	8.01	0
1	39240	8.11	0
1	39797	8.21	0
1	40354	8.31	0
1	40911	8.41	0
1	41468	8.51	0
1	42025	8.61	0
1	42582	8.71	0
1	43139	8.81	0
1	43696	8.91	0
1	44261	9.01	0
1	44818	9.11	0
1	45375	9.21	0
1	45932	9.31	0
1	46489	9.41	0
1	47046	9.51	0
1	47603	9.61	0
1	48160	9.71	0
1	48717	9.81	0
1	49274	9.91	0
1	49839	10.01	0
1	50396	10.11	0
1	50953	10.21	0
1	51510	10.31	0
1	52067	10.41	0
1	52624	10.51	0
1	53181	10.61	0
1	53738	10.71	0
1	54295	10.81	0
1	54852	10.91	0
1	55417	11.01	0
1	55974	11.11	0
1	56531	11.21	0
1	57088	11.31	0
1	57645	11.41	0
1	58202	11.51	0
1	58759	11.61	0
1	59316	11.71	0
1	59873	11.81	0
1	60430	11.91	0
1	60995	12.01	0
1	61552	12.11	0
1	62109	12.21	0
1	62666	12.31	0
1	63223	12.41	0
1	63780	12.51	0
1	64337	12.61	0
1	64894	12.71	0
1	65451	12.81	0
1	66008	12.91	0
1	66573	13.01	0
1	67130	13.11	0
1	67687	13.21	0
1	68244	13.31	0
1	68801	13.41	0
1	69358	13.51	0
1	69915	13.61	0
1	70472	13.71	0
1	71029	13.81	0
1	71586	13.91	0
1	72151	14.01	0
1	72708	14.11	0
1	73265	14.21	0
1	73822	14.31	0
1	74379	14.41	0
1	74936	14.51	0
1	75493	14.61	0
1	76050	14.71	0
1	76607	14.81	0
1	77164	14.91	0
1	77729	15.01	0
1	78286	15.11	0
1	78843	15.21	0
1	79400	15.31	0
1	79957	15.41	0
1	80514	15.51	0
1	81071	15.61	0
1	81628	15.71	0
1	82185	15.81	0
1	82742	15.91	0
1	83307	16.01	0
1	83864	16.11	0
1	84421	16.21	0
1	84978	16.31	0
1	85535	16.41	0
1	86092	16.51	0
1	86649	16.61	0
1	87206	16.71	0
1	87763	16.81	0
1	88320	16.91	0
1	88885	17.01	0
1	89442	17.11	0
1	89999	17.21	0
1	90556	17.31	0
1	91113	17.41	0
1	91670	17.51	0
1	92227	17.61	0
1	92784	17.71	0
1	93341	17.81	0
1	93898	17.91	0
1	94463	18.01	0
1	95020	18.11	0
1	95577	18.21	0
1	96134	18.31	0
1	96691	18.41	0
1	97248	18.51	0
1	97805	18.61	0
1	98362	18.71	0
1	98919	18.81	0
1	99476	18.91	0
1	100041	19.01	0
1	100598	19.11	0
1	101155	19.21	0
1	101712	19.31	0
1	102269	19.41	0
1	102826	19.51	0
1	103383	19.61	0
1	103940	19.71	0
1	104497	19.81	0
1	105054	19.91	0
1	105619	20.01	0
1	106176	20.11	0
1	106733	20.21	0
1	107290	20.31	0
1	107847	20.41	0
1	108404	20.51	0
1	108961	20.61	0
1	109518	20.71	0
1	110075	20.81	0
1	110632	20.91	0
1	111197	21.01	0
1	111754	21.11	0
1	112311	21.21	0
1	112868	21.31	0
1	113425	21.41	0
1	113982	21.51	0
1	114539	21.61	0
1	115096	21.71	0
1	115653	21.81	0
1	116210	21.91	0
1	116775	22.01	0
1	117332	22.11	0
1	117889	22.21	0
1	118446	22.31	0
1	119003	22.41	0
1	119560	22.51	0
1	120117	22.61	0
1	120674	22.71	0
1	121231	22.81	0
1	121788	22.91	0
1	122353	23.01	0
1	122910	23.11	0
1	123467	23.21	0
1	124024	23.31	0
1	124581	23.41	0
1	125138	23.51	0
1	125695	23.61	0
1	126252	23.71	0
1	126809	23.81	0
1	127366	23.91	0
1	127931	24.01	0
1	128488	24.11	0
1	129045	24.21	0
1	129602	24.31	0
1	130159	24.41	0
1	130716	24.51	0
1	131273	24.61	0
1	131830	24.71	0
1	132387	24.81	0
1	132944	24.91	0
1	133509	25.01	0
1	134066	25.11	0
1	134623	25.21	0
1	135180	25.31	0
1	135737	25.41	0
1	136294	25.51	0
1	136851	25.61	0
1	137408	25.71	0
1	137965	25.81	0
1	138522	25.91	0
1	139087	26.01	0
1	139644	26.11	0
1	140201	26.21	0
1	140758	26.31	0
1	141315	26.41	0
1	141872	26.51	0
1	142429	26.61	0
1	142986	26.71	0
1	143543	26.81	0
1	144100	26.91	0
1	144665	27.01	0
1	145222	27.11	0
1	145779	27.21	0
1	146336	27.31	0
1	146893	27.41	0
1	147450	27.51	0
1	148007	27.61	0
1	148564	27.71	0
1	149121	27.81	0
1	149678	27.91	0
1	150243	28.01	0
1	150800	28.11	0
1	151357	28.21	0
1	151914	28.31	0
1	152471	28.41	0
1	153028	28.51	0
1	153585	28.61	0
1	154142	28.71	0
1	154699	28.81	0
1	155256	28.91	0
1	155821	29.01	0
1	156378	29.11	0
1	156935	29.21	0
1	157492	29.31	0
1	158049	29.41	0
1	158606	29.51	0
1	159163	29.61	0
1	159720	29.71	0
1	160277	29.81	0
1	160834	29.91	0
1	161399	30.01	0
1	161956	30.11	0
1	162513	30.21	0
1	163070	30.31	0
1	163627	30.41	0
1	164184	30.51	0
1	164741	30.61	0
1	165298	30.71	0
1	165855	30.81	0
1	166412	30.91	0
1	166977	31.01	0
1	167534	31.11	0
1	168091	31.21	0
1	168648	31.31	0
1	169205	31.41	0
1	169762	31.51	0
1	170319	31.61	0
1	170876	31.71	0
1	171433	31.81	0
1	171990	31.91	0
1	172555	32.01	0
1	173112	32.11	0
1	173669	32.21	0
1	174226	32.31	0
1	174783	32.41	0
1	175340	32.51	0
1	175897	32.61	0
1	176454	32.71	0
1	177011	32.81	0
1	177568	32.91	0
1	178133	33.01	0
1	178690	33.11	0
1	179247	33.21	0
1	179804	33.31	0
1	180361	33.41	0
1	180918	33.51	0
1	181475	33.61	0
1	182032	33.71	0
1	182589	33.81	0
1	183146	33.91	0
1	183711	34.01	0
1	184268	34.11	0
1	184825	34.21	0
1	185382	34.31	0
1	185939	34.41	0
1	186496	34.51	0
1	187053	34.61	0
1	187610	34.71	0
1	188167	34.81	0
1	188724	34.91	0
1	189289	35.01	0
1	189846	35.11	0
1	190403	35.21	0
1	190960	35.31	0
1	191517	35.41	0
1	192074	35.51	0
1	192631	35.61	0
1	193188	35.71	0
1	193745	35.81	0
1	194302	35.91	0
1	194867	36.01	0
1	195424	36.11	0
1	195981	36.21	0
1	196538	36.31	0
1	197095	36.41	0
1	197652	36.51	0
1	198209	36.61	0
1	198766	36.71	0
1	199323	36.81	0
1	199880	36.91	0
1	200445	37.01	0
1	201002	37.11	0
1	201559	37.21	0
1	202116	37.31	0
1	202673	37.41	0
1	203230	37.51	0
1	203787	37.61	0
1	204344	37.71	0
1	204901	37.81	0
1	205458	37.91	0
1	206023	38.01	0
1	206580	38.11	0
1	207137	38.21	0
1	207694	38.31	0
1	208251	38.41	0
1	208808	38.51	0
1	209365	38.61	0
1	209922	38.71	0
1	210479	38.81	0
1	211036	38.91	0
1	211601	39.01	0
0	232	1.11	-1
0	788	1.21	-1
0	1344	1.31	-1
0	1900	1.41	-1
0	2456	1.51	-1
0	3012	1.61	-1
0	3568	1.71	-1
0	4124	1.81	-1
0	4680	1.91	-1
0	5244	2.01	-1
0	5800	2.11	-1
0	6356	2.21	-1
0	6912	2.31	-1
0	7468	2.41	-1
0	8024	2.51	-1
0	8580	2.61	-1
0	9136	2.71	-1
0	9692	2.81	-1
0	10248	2.91	-1
0	10812	3.01	-1
0	11368	3.11	-1
0	11924	3.21	-1
0	12480	3.31	-1
0	13036	3.41	-1
0	13592	3.51	-1
0	14148	3.61	-1
0	14704	3.71	-1
0	15260	3.81	-1
0	15816	3.91	-1
0	16380	4.01	-1
0	16936	4.11	-1
0	17492	4.21	-1
0	18048	4.31	-1
0	18604	4.41	-1
0	19160	4.51	-1
0	19716	4.61	-1
0	20272	4.71	-1
0	20828	4.81	-1
0	21384	4.91	-1
0	21949	5.01	-1
0	22506	5.11	-1
0	23063	5.21	-1
0	23620	5.31	-1
0	24177	5.41	-1
0	24734	5.51	-1
0	25291	5.61	-1
0	25848	5.71	-1
0	26405	5.81	-1
0	26962	5.91	-1
0	27527	6.01	-1
0	28084	6.11	-1
0	28641	6.21	-1
0	29198	6.31	-1
0	29755	6.41	-1
0	30312	6.51	-1
0	30869	6.61	-1
0	31426	6.71	-1
0	31983	6.81	-1
0	32540	6.91	-1
0	33105	7.01	-1
0	33662	7.11	-1
0	34219	7.21	-1
0	34776	7.31	-1
0	35333	7.41	-1
0	35890	7.51	-1
0	36447	7.61	-1
0	37004	7.71	-1
0	37561	7.81	-1
0	38118	7.91	-1
0	38683	8.01	-1
0	39240	8.11	-1
0	39797	8.21	-1
0	40354	8.31	-1
0	40911	8.41	-1
0	41468	8.51	-1
0	42025	8.61	-1
0	42582	8.71	-1
0	43139	8.81	-1
0	43696	8.91	-1
0	44261	9.01	-1
0	44818	9.11	-1
0	45375	9.21	-1
0	45932	9.31	-1
0	46489	9.41	-1
0	47046	9.51	-1
0	47603	9.61	-1
0	48160	9.71	-1
0	48717	9.81	-1
0	49274	9.91	-1
0	49839	10.01	-1
0	50396	10.11	-1
0	50953	10.21	-1
0	51510	10.31	-1
0	52067	10.41	-1
0	52624	10.51	-1
0	53181	10.61	-1
0	53738	10.71	-1
0	54295	10.81	-1
0	54852	10.91	-1
0	55417	11.01	-1
0	55974	11.11	-1
0	56531	11.21	-1
0	57088	11.31	-1
0	57645	11.41	-1
0	58202	11.51	-1
0	58759	11.61	-1
0	59316	11.71	-1
0	59873	11.81	-1
0	60430	11.91	-1
0	60995	12.01	-1
0	61552	12.11	-1
0	62109	12.21	-1
0	62666	12.31	-1
0	63223	12.41	-1
0	63780	12.51	-1
0	64337	12.61	-1
0	64894	12.71	-1
0	65451	12.81	-1
0	66008	12.91	-1
0	66573	13.01	-1
0	67130	13.11	-1
0	67687	13.21	-1
0	68244	13.31	-1
0	68801	13.41	-1
0	69358	13.51	-1
0	69915	13.61	-1
0	70472	13.71	-1
0	71029	13.81	-1
0	71586	13.91	-1
0	72151	14.01	-1
0	72708	14.11	-1
0	73265	14.21	-1
0	73822	14.31	-1
0	74379	14.41	-1
0	74936	14.51	-1
0	75493	14.61	-1
0	76050	14.71	-1
0	76607	14.81	-1
0	77164	14.91	-1
0	77729	15.01	-1
0	78286	15.11	-1
0	78843	15.21	-1
0	79400	15.31	-1
0	79957	15.41	-1
0	80514	15.51	-1
0	81071	15.61	-1
0	81628	15.71	-1
0	82185	15.81	-1
0	82742	15.91	-1
0	83307	16.01	-1
0	83864	16.11	-1
0	84421	16.21	-1
0	84978	16.31	-1
0	85535	16.41	-1
0	86092	16.51	-1
0	86649	16.61	-1
0	87206	16.71	-1
0	87763	16.81	-1
0	88320	16.91	-1
0	88885	17.01	-1
0	89442	17.11	-1
0	89999	17.21	-1
0	90556	17.31	-1
0	91113	17.41	-1
0	91670	17.51	-1
0	92227	17.61	-1
0	92784	17.71	-1
0	93341	17.81	-1
0	93898	17.91	-1
0	94463	18.01	-1
0	95020	18.11	-1
0	95577	18.21	-1
0	96134	18.31	-1
0	96691	18.41	-1
0	97248	18.51	-1
0	97805	18.61	-1
0	98362	18.71	-1
0	98919	18.81	-1
0	99476	18.91	-1
0	100041	19.01	-1
0	100598	19.11	-1
0	101155	19.21	-1
0	101712	19.31	-1
0	102269	19.41	-1
0	102826	19.51	-1
0	103383	19.61	-1
0	103940	19.71	-1
0	104497	19.81	-1
0	105054	19.91	-1
0	105619	20.01	-1
0	106176	20.11	-1
0	106733	20.21	-1
0	107290	20.31	-1
0	107847	20.41	-1
0	108404	20.51	-1
0	108961	20.61	-1
0	109518	20.71	-1
0	110075	20.81	-1
0	110632	20.91	-1
0	111197	21.01	-1
0	111754	21.11	-1
0	112311	21.21	-1
0	112868	21.31	-1
0	113425	21.41	-1
0	113982	21.51	-1
0	114539	21.61	-1
0	115096	21.71	-1
0	115653	21.81	-1
0	116210	21.91	-1
0	116775	22.01	-1
0	117332	22.11	-1
0	117889	22.21	-1
0	118446	22.31	-1
0	119003	22.41	-1
0	119560	22.51	-1
0	120117	22.61	-1
0	120674	22.71	-1
0	121231	22.81	-1
0	121788	22.91	-1
0	122353	23.01	-1
0	122910	23.11	-1
0	123467	23.21	-1
0	124024	23.31	-1
0	124581	23.41	-1
0	125138	23.51	-1
0	125695	23.61	-1
0	126252	23.71	-1
0	126809	23.81	-1
0	127366	23.91	-1
0	127931	24.01	-1
0	128488	24.11	-1
0	129045	24.21	-1
0	129602	24.31	-1
0	130159	24.41	-1
0	130716	24.51	-1
0	131273	24.61	-1
0	131830	24.71	-1
0	132387	24.81	-1
0	132944	24.91	-1
0	133509	25.01	-1
0	134066	25.11	-1
0	134623	25.21	-1
0	135180	25.31	-1
0	135737	25.41	-1
0	136294	25.51	-1
0	136851	25.61	-1
0	137408	25.71	-1
0	137965	25.81	-1
0	138522	25.91	-1
0	139087	26.01	-1
0	139644	26.11	-1
0	140201	26.21	-1
0	140758	26.31	-1
0	141315	26.41	-1
0	141872	26.51	-1
0	142429	26.61	-1
0	142986	26.71	-1
0	143543	26.81	-1
0	144100	26.91	-1
0	144665	27.01	-1
0	145222	27.11	-1
0	145779	27.21	-1
0	146336	27.31	-1
0	146893	27.41	-1
0	147450	27.51	-1
0	148007	27.61	-1
0	148564	27.71	-1
0	149121	27.81	-1
0	149678	27.91	-1
0	150243	28.01	-1
0	150800	28.11	-1
0	151357	28.21	-1
0	151914	28.31	-1
0	152471	28.41	-1
0	153028	28.51	-1
0	153585	28.61	-1
0	154142	28.71	-1
0	154699	28.81	-1
0	155256	28.91	-1
0	155821	29.01	-1
0	156378	29.11	-1
0	156935	29.21	-1
0	157492	29.31	-1
0	158049	29.41	-1
0	158606	29.51	-1
0	159163	29.61	-1
0	159720	29.71	-1
0	160277	29.81	-1
0	160834	29.91	-1
0	161399	30.01	-1
0	161956	30.11	-1
0	162513	30.21	-1
0	163070	30.31	-1
0	163627	30.41	-1
0	164184	30.51	-1
0	164741	30.61	-1
0	165298	30.71	-1
0	165855	30.81	-1
0	166412	30.91	-1
0	166977	31.01	-1
0	167534	31.11	-1
0	168091	31.21	-1
0	168648	31.31	-1
0	169205	31.41	-1
0	169762	31.51	-1
0	170319	31.61	-1
0	170876	31.71	-1
0	171433	31.81	-1
0	171990	31.91	-1
0	172555	32.01	-1
0	173112	32.11	-1
0	173669	32.21	-1
0	174226	32.31	-1
0	174783	32.41	-1
0	175340	32.51	-1
0	175897	32.61	-1
0	176454	32.71	-1
0	177011	32.81	-1
0	177568	32.91	-1
0	178133	33.01	-1
0	178690	33.11	-1
0	179247	33.21	-1
0	179804	33.31	-1
0	180361	33.41	-1
0	180918	33.51	-1
0	181475	33.61	-1
0	182032	33.71	-1
0	182589	33.81	-1
0	183146	33.91	-1
0	183711	34.01	-1
0	184268	34.11	-1
0	184825	34.21	-1
0	185382	34.31	-1
0	185939	34.41	-1
0	186496	34.51	-1
0	187053	34.61	-1
0	187610	34.71	-1
0	188167	34.81	-1
0	188724	34.91	-1
0	189289	35.01	-1
0	189846	35.11	-1
0	190403	35.21	-1
0	190960	35.31	-1
0	191517	35.41	-1
0	192074	35.51	-1
0	192631	35.61	-1
0	193188	35.71	-1
0	193745	35.81	-1
0	194302	35.91	-1
0	194867	36.01	-1
0	195424	36.11	-1
0	195981	36.21	-1
0	196538	36.31	-1
0	197095	36.41	-1
0	197652	36.51	-1
0	198209	36.61	-1
0	198766	36.71	-1
0	199323	36.81	-1
0	199880	36.91	-1
0	200445	37.01	-1
0	201002	37.11	-1
0	201559	37.21	-1
0	202116	37.31	-1
0	202673	37.41	-1
0	203230	37.51	-1
0	203787	37.61	-1
0	204344	37.71	-1
0	204901	37.81	-1
0	205458	37.91	-1
0	206023	38.01	-1
0	206580	38.11	-1
0	207137	38.21	-1
0	207694	38.31	-1
0	208251	38.41	-1
0	208808	38.51	-1
0	209365	38.61	-1
0	209922	38.71	-1
0	210479	38.81	-1
0	211036	38.91	-1
0	211601	39.01	-1
2	232	1.11	0
2	788	1.21	0
2	1344	1.31	0
2	1900	1.41	0
2	2456	1.51	0
2	3012	1.61	0
2	3568	1.71	0
2	4124	1.81	0
2	4680	1.91	0
2	5244	2.01	0
2	5800	2.11	0
2	6356	2.21	0
2	6912	2.31	0
2	7468	2.41	0
2	8024	2.51	0
2	8580	2.61	0
2	9136	2.71	0
2	9692	2.81	0
2	10248	2.91	0
2	10812	3.01	0
2	11368	3.11	0
2	11924	3.21	0
2	12480	3.31	0
2	13036	3.41	0
2	13592	3.51	0
2	14148	3.61	0
2	14704	3.71	0
2	15260	3.81	0
2	15816	3.91	0
2	16380	4.01	0
2	16936	4.11	0
2	17492	4.21	0
2	18048	4.31	0
2	18604	4.41	0
2	19160	4.51	0
2	19716	4.61	0
2	20272	4.71	0
2	20828	4.81	0
2	21384	4.91	0
2	21949	5.01	0
2	22506	5.11	0
2	23063	5.21	0
2	23620	5.31	0
2	24177	5.41	0
2	24734	5.51	0
2	25291	5.61	0
2	25848	5.71	0
2	26405	5.81	0
2	26962	5.91	0
2	27527	6.01	0
2	28084	6.11	0
2	28641	6.21	0
2	29198	6.31	0
2	29755	6.41	0
2	30312	6.51	0
2	30869	6.61	0
2	31426	6.71	0
2	31983	6.81	0
2	32540	6.91	0
2	33105	7.01	0
2	33662	7.11	0
2	34219	7.21	0
2	34776	7.31	0
2	35333	7.41	0
2	35890	7.51	0
2	36447	7.61	0
2	37004	7.71	0
2	37561	7.81	0
2	38118	7.91	0
2	38683	8.01	0
2	39240	8.11	0
2	39797	8.21	0
2	40354	8.31	0
2	40911	8.41	0
2	41468	8.51	0
2	42025	8.61	0
2	42582	8.71	0
2	43139	8.81	0
2	43696	8.91	0
2	44261	9.01	0
2	44818	9.11	0
2	45375	9.21	0
2	45932	9.31	0
2	46489	9.41	0
2	47046	9.51	0
2	47603	9.61	0
2	48160	9.71	0
2	48717	9.81	0
2	49274	9.91	0
2	49839	10.01	0
2	50396	10.11	0
2	50953	10.21	0
2	51510	10.31	0
2	52067	10.41	0
2	52624	10.51	0
2	53181	10.61	0
2	53738	10.71	0
2	54295	10.81	0
2	54852	10.91	0
2	55417	11.01	0
2	55974	11.11	0
2	56531	11.21	0
2	57088	11.31	0
2	57645	11.41	0
2	58202	11.51	0
2	58759	11.61	0
2	59316	11.71	0
2	59873	11.81	0
2	60430	11.91	0
2	60995	12.01	0
2	61552	12.11	0
2	62109	12.21	0
2	62666	12.31	0
2	63223	12.41	0
2	63780	12.51	0
2	64337	12.61	0
2	64894	12.71	0
2	65451	12.81	0
2	66008	12.91	0
2	66573	13.01	0
2	67130	13.11	0
2	67687	13.21	0
2	68244	13.31	0
2	68801	13.41	0
2	69358	13.51	0
2	69915	13.61	0
2	70472	13.71	0
2	71029	13.81	0
2	71586	13.91	0
2	72151	14.01	0
2	72708	14.11	0
2	73265	14.21	0
2	73822	14.31	0
2	74379	14.41	0
2	74936	14.51	0
2	75493	14.61	0
2	76050	14.71	0
2	76607	14.81	0
2	77164	14.91	0
2	77729	15.01	0
2	78286	15.11	0
2	78843	15.21	0
2	79400	15.31	0
2	79957	15.41	0
2	80514	15.51	0
2	81071	15.61	0
2	81628	15.71	0
2	82185	15.81	0
2	82742	15.91	0
2	83307	16.01	0
2	83864	16.11	0
2	84421	16.21	0
2	84978	16.31	0
2	85535	16.41	0
2	86092	16.51	0
2	86649	16.61	0
2	87206	16.71	0
2	87763	16.81	0
2	88320	16.91	0
2	88885	17.01	0
2	89442	17.11	0
2	89999	17.21	0
2	90556	17.31	0
2	91113	17.41	0
2	91670	17.51	0
2	92227	17.61	0
2	92784	17.71	0
2	93341	17.81	0
2	93898	17.91	0
2	94463	18.01	0
2	95020	18.11	0
2	95577	18.21	0
2	96134	18.31	0
2	96691	18.41	0
2	97248	18.51	0
2	97805	18.61	0
2	98362	18.71	0
2	98919	18.81	0
2	99476	18.91	0
2	100041	19.01	0
2	100598	19.11	0
2	101155	19.21	0
2	101712	19.31	0
2	102269	19.41	0
2	102826	19.51	0
2	103383	19.61	0
2	103940	19.71	0
2	104497	19.81	0
2	105054	19.91	0
2	105619	20.01	0
2	106176	20.11	0
2	106733	20.21	0
2	107290	20.31	0
2	107847	20.41	0
2	108404	20.51	0
2	108961	20.61	0
2	109518	20.71	0
2	110075	20.81	0
2	110632	20.91	0
2	111197	21.01	0
2	111754	21.11	0
2	112311	21.21	0
2	112868	21.31	0
2	113425	21.41	0
2	113982	21.51	0
2	114539	21.61	0
2	115096	21.71	0
2	115653	21.81	0
2	116210	21.91	0
2	116775	22.01	0
2	117332	22.11	0
2	117889	22.21	0
2	118446	22.31	0
2	119003	22.41	0
2	119560	22.51	0
2	120117	22.61	0
2	120674	22.71	0
2	121231	22.81	0
2	121788	22.91	0
2	122353	23.01	0
2	122910	23.11	0
2	123467	23.21	0
2	124024	23.31	0
2	124581	23.41	0
2	125138	23.51	0
2	125695	23.61	0
2	126252	23.71	0
2	126809	23.81	0
2	127366	23.91	0
2	127931	24.01	0
2	128488	24.11	0
2	129045	24.21	0
2	129602	24.31	0
2	130159	24.41	0
2	130716	24.51	0
2	131273	24.61	0
2	131830	24.71	0
2	132387	24.81	0
2	132944	24.91	0
2	133509	25.01	0
2	134066	25.11	0
2	134623	25.21	0
2	135180	25.31	0
2	135737	25.41	0
2	136294	25.51	0
2	136851	25.61	0
2	137408	25.71	0
2	137965	25.81	0
2	138522	25.91	0
2	139087	26.01	0
2	139644	26.11	0
2	140201	26.21	0
2	140758	26.31	0
2	141315	26.41	0
2	141872	26.51	0
2	142429	26.61	0
2	142986	26.71	0
2	143543	26.81	0
2	144100	26.91	0
2	144665	27.01	0
2	145222	27.11	0
2	145779	27.21	0
2	146336	27.31	0
2	146893	27.41	0
2	147450	27.51	0
2	148007	27.61	0
2	148564	27.71	0
2	149121	27.81	0
2	149678	27.91	0
2	150243	28.01	0
2	150800	28.11	0
2	151357	28.21	0
2	151914	28.31	0
2	152471	28.41	0
2	153028	28.51	0
2	153585	28.61	0
2	154142	28.71	0
2	154699	28.81	0
2	155256	28.91	0
2	155821	29.01	0
2	156378	29.11	0
2	156935	29.21	0
[...]
35	144713	27.069560094469	0.0999993015
35	145270	27.169559396179	0.09999930171
35	145827	27.269558698093	0.099999301914
35	146384	27.369558000194	0.099999302101
35	146941	27.469557302466	0.099999302272
35	147498	27.569556604876	0.09999930241
35	148055	27.66955590739	0.099999302514
35	148612	27.769555209974	0.099999302584
35	149169	27.869554512589	0.099999302615
35	149726	27.969566815201	0.100012302612
35	150291	28.069566117781	0.09999930258
35	150848	28.169565420306	0.099999302525
35	151405	28.26956472275	0.099999302444
35	151962	28.369564025096	0.099999302346
35	152519	28.469563327329	0.099999302233
35	153076	28.569562629438	0.099999302109
35	153633	28.669561931406	0.099999301968
35	154190	28.769561233223	0.099999301817
35	154747	28.869560534882	0.099999301659
35	155304	28.969559836373	0.099999301491
35	155869	29.069559137685	0.099999301312
35	156426	29.169558438813	0.099999301128
35	156983	29.269557739751	0.099999300938
35	157540	29.369557040489	0.099999300738
35	158097	29.469556341021	0.099999300532
35	158654	29.569555641343	0.099999300322
35	159211	29.669554941456	0.099999300113
35	159768	29.769554241365	0.099999299909
35	160325	29.869566541085	0.10001229972
35	160882	29.969565840636	0.099999299551
35	161447	30.069565140046	0.09999929941
35	162004	30.169564439352	0.099999299306
35	162561	30.26956373859	0.099999299238
35	163118	30.369563037795	0.099999299205
35	163675	30.469562337001	0.099999299206
35	164232	30.569561636239	0.099999299238
35	164789	30.669560935534	0.099999299295
35	165346	30.769560234906	0.099999299372
35	165903	30.869559534377	0.099999299471
35	166460	30.969558833961	0.099999299584
35	167025	31.06955813367	0.099999299709
35	167582	31.169557433517	0.099999299847
35	168139	31.269556733508	0.099999299991
35	168696	31.369556033654	0.099999300146
35	169253	31.469555333957	0.099999300303
35	169810	31.569554634428	0.099999300471
35	170367	31.669566935069	0.100012300641
35	170924	31.769566235885	0.099999300816
35	171481	31.869565536877	0.099999300992
35	172038	31.969564838046	0.099999301169
35	172603	32.069564139396	0.09999930135
35	173160	32.169563440919	0.099999301523
35	173717	32.269562742598	0.099999301679
35	174274	32.369562044405	0.099999301807
35	174831	32.469561346292	0.099999301887
35	175388	32.569560648199	0.099999301907
35	175945	32.669559950041	0.099999301842
35	176502	32.769559251718	0.099999301677
35	177059	32.869558553108	0.09999930139
35	177616	32.969557854081	0.099999300973
35	178181	33.069557154492	0.099999300411
35	178738	33.169556454188	0.099999299696
35	179295	33.269555753009	0.099999298821
35	179852	33.369555050786	0.099999297777
35	180409	33.469554347349	0.099999296563
35	180966	33.569566642524	0.100012295175
35	181523	33.669565936132	0.099999293608
35	182080	33.769565227992	0.09999929186
35	182637	33.869564517924	0.099999289932
35	183194	33.969563805743	0.099999287819
35	183759	34.069563091265	0.099999285522
35	184316	34.169562374306	0.099999283041
35	184873	34.269561654678	0.099999280372
35	185430	34.369560932197	0.099999277519
35	185987	34.469560206676	0.099999274479
35	186544	34.569559477933	0.099999271257
35	187101	34.669558745791	0.099999267858
35	187658	34.76955801008	0.099999264289
35	188215	34.869557270646	0.099999260566
35	188772	34.96955652735	0.099999256704
35	189337	35.069555780074	0.099999252724
35	189894	35.169555028717	0.099999248643
35	190451	35.269554273199	0.099999244482
35	191008	35.369566513455	0.100012240256
35	191565	35.469565749437	0.099999235982
35	192122	35.569564981114	0.099999231677
35	192679	35.669564208455	0.099999227341
35	193236	35.769563431447	0.099999222992
35	193793	35.869562650078	0.099999218631
35	194350	35.969561864344	0.099999214266
35	194915	36.069561074246	0.099999209902
35	195472	36.16956027979	0.099999205544
35	196029	36.269559480985	0.099999201195
35	196586	36.369558677845	0.09999919686
35	197143	36.469557870383	0.099999192538
35	197700	36.569557058619	0.099999188236
35	198257	36.669556242574	0.099999183955
35	198814	36.769555422271	0.099999179697
35	199371	36.869554597735	0.099999175464
35	199928	36.969566768993	0.100012171258
35	200493	37.069565936072	0.099999167079
35	201050	37.169565098994	0.099999162922
35	201607	37.269564257777	0.099999158783
35	202164	37.369563412424	0.099999154647
35	202721	37.469562562924	0.0999991505
35	203278	37.569561709253	0.099999146329
35	203835	37.669560851366	0.099999142113
35	204392	37.769559989202	0.099999137836
35	204949	37.869559122683	0.099999133481
35	205506	37.969558251722	0.099999129039
35	206071	38.069557376221	0.099999124499
35	206628	38.169556496073	0.099999119852
35	207185	38.269555611166	0.099999115093
35	207742	38.369554721381	0.099999110215
35	208299	38.4695668266	0.100012105219
35	208856	38.569565926696	0.099999100096
35	209413	38.669565021546	0.09999909485
35	209970	38.769564111023	0.099999089477
35	210527	38.869563195001	0.099999083978
35	211084	38.96956227335	0.099999078349
36	836	1.269558350935	0.0999993009
36	1392	1.369557651835	0.0999993009
36	1948	1.469556952735	0.0999993009
36	2504	1.569556253635	0.0999993009
36	3060	1.669555554535	0.0999993009
36	3616	1.769554855435	0.0999993009
36	4172	1.869554156335	0.0999993009
36	4728	1.969566457235	0.1000123009
36	5292	2.069565758135	0.0999993009
36	5848	2.169565059035	0.0999993009
36	6404	2.269564359935	0.0999993009
36	6960	2.369563660835	0.0999993009
36	7516	2.469562961735	0.0999993009
36	8072	2.569562262635	0.0999993009
36	8628	2.669561563535	0.0999993009
36	9184	2.769560864435	0.0999993009
36	9740	2.869560165335	0.0999993009
36	10296	2.969559466235	0.0999993009
36	10860	3.069558767135	0.0999993009
36	11416	3.169558068035	0.0999993009
36	11972	3.269557368935	0.0999993009
36	12528	3.369556669835	0.0999993009
36	13084	3.469555970735	0.0999993009
36	13640	3.569555271635	0.0999993009
36	14196	3.669554572535	0.0999993009
36	14752	3.769566873435	0.1000123009
36	15308	3.869566174335	0.0999993009
36	15864	3.969565475235	0.0999993009
36	16428	4.069564776135	0.0999993009
36	16984	4.169564077035	0.0999993009
36	17540	4.269563377935	0.0999993009
36	18096	4.369562678835	0.0999993009
36	18652	4.469561979735	0.0999993009
36	19208	4.569561280635	0.0999993009
36	19764	4.669560581535	0.0999993009
36	20320	4.769559882435	0.0999993009
36	20876	4.869559183335	0.0999993009
36	21432	4.969558484235	0.0999993009
36	21997	5.069557785135	0.0999993009
36	22554	5.169557086035	0.0999993009
36	23111	5.269556386936	0.099999300901
36	23668	5.369555687845	0.099999300909
36	24225	5.469554988776	0.099999300931
36	24782	5.569554289745	0.099999300969
36	25339	5.669566590775	0.10001230103
36	25896	5.769565891889	0.099999301114
36	26453	5.869565193111	0.099999301222
36	27010	5.969564494462	0.099999301351
36	27575	6.06956379596	0.099999301498
36	28132	6.169563097623	0.099999301663
36	28689	6.269562399462	0.099999301839
36	29246	6.369561701488	0.099999302026
36	29803	6.469561003713	0.099999302225
36	30360	6.569560306145	0.099999302432
36	30917	6.669559608792	0.099999302647
36	31474	6.769558911662	0.09999930287
36	32031	6.869558214752	0.09999930309
36	32588	6.969557518059	0.099999303307
36	33153	7.069556821573	0.099999303514
36	33710	7.169556125275	0.099999303702
36	34267	7.269555429144	0.099999303869
36	34824	7.369554733152	0.099999304008
36	35381	7.469554037265	0.099999304113
36	35938	7.569566341451	0.100012304186
36	36495	7.669565645673	0.099999304222
36	37052	7.7695649499	0.099999304227
36	37609	7.869564254099	0.099999304199
36	38166	7.969563558248	0.099999304149
36	38731	8.069562862327	0.099999304079
36	39288	8.169562166315	0.099999303988
36	39845	8.269561470201	0.099999303886
36	40402	8.369560773967	0.099999303766
36	40959	8.469560077604	0.099999303637
36	41516	8.569559381097	0.099999303493
36	42073	8.669558684439	0.099999303342
36	42630	8.769557987622	0.099999303183
36	43187	8.869557290635	0.099999303013
36	43744	8.96955659347	0.099999302835
36	44309	9.06955589612	0.09999930265
36	44866	9.169555198578	0.099999302458
36	45423	9.269554500836	0.099999302258
36	45980	9.369566802887	0.100012302051
36	46537	9.469566104726	0.099999301839
36	47094	9.569565406346	0.09999930162
36	47651	9.669564707744	0.099999301398
36	48208	9.76956400892	0.099999301176
36	48765	9.869563309884	0.099999300964
36	49322	9.969562610654	0.09999930077
36	49887	10.069561911252	0.099999300598
36	50444	10.169561211708	0.099999300456
36	51001	10.269560512059	0.099999300351
36	51558	10.369559812342	0.099999300283
36	52115	10.469559112596	0.099999300254
36	52672	10.569558412852	0.099999300256
36	53229	10.66955771314	0.099999300288
36	53786	10.769557013484	0.099999300344
36	54343	10.869556313904	0.09999930042
36	54900	10.969555614418	0.099999300514
36	55465	11.069554915041	0.099999300623
36	56022	11.169554215783	0.099999300742
36	56579	11.269566516661	0.100012300878
36	57136	11.369565817684	0.099999301023
36	57693	11.469565118859	0.099999301175
36	58250	11.569564420197	0.099999301338
36	58807	11.669563721706	0.099999301509
36	59364	11.769563023394	0.099999301688
36	59921	11.869562325268	0.099999301874
36	60478	11.969561627335	0.099999302067
36	61043	12.069560929599	0.099999302264
36	61600	12.169560232058	0.099999302459
36	62157	12.269559534707	0.099999302649
36	62714	12.369558837526	0.099999302819
36	63271	12.469558140494	0.099999302968
36	63828	12.569557443583	0.099999303089
36	64385	12.669556746756	0.099999303173
36	64942	12.769556049977	0.099999303221
36	65499	12.869555353213	0.099999303236
36	66056	12.969554656428	0.099999303215
36	66621	13.069566959594	0.100012303166
36	67178	13.169566262689	0.099999303095
36	67735	13.269565565687	0.099999302998
36	68292	13.369564868576	0.099999302889
36	68849	13.469564171339	0.099999302763
36	69406	13.569563473963	0.099999302624
36	69963	13.669562776438	0.099999302475
36	70520	13.769562078752	0.099999302314
36	71077	13.869561380896	0.099999302144
36	71634	13.969560682861	0.099999301965
36	72199	14.06955998464	0.099999301779
36	72756	14.169559286226	0.099999301586
36	73313	14.26955858761	0.099999301384
36	73870	14.369557888788	0.099999301178
36	74427	14.46955718975	0.099999300962
36	74984	14.569556490495	0.099999300745
36	75541	14.669555791021	0.099999300526
36	76098	14.769555091333	0.099999300312
36	76655	14.869554391446	0.099999300113
36	77212	14.969566691381	0.100012299935
36	77777	15.069565991166	0.099999299785
36	78334	15.169565290835	0.099999299669
36	78891	15.269564590422	0.099999299587
36	79448	15.369563889969	0.099999299547
36	80005	15.469563189505	0.099999299536
36	80562	15.569562489066	0.099999299561
36	81119	15.669561788675	0.099999299609
36	81676	15.769561088354	0.099999299679
36	82233	15.869560388122	0.099999299768
36	82790	15.969559687997	0.099999299875
36	83355	16.069558987992	0.099999299995
36	83912	16.169558288119	0.099999300127
36	84469	16.269557588387	0.099999300268
36	85026	16.369556888807	0.09999930042
36	85583	16.46955618939	0.099999300583
36	86140	16.569555490143	0.099999300753
36	86697	16.669554791073	0.09999930093
36	87254	16.76955409219	0.099999301117
36	87811	16.869566393501	0.100012301311
36	88368	16.969565695013	0.099999301512
36	88933	17.069564996728	0.099999301715
36	89490	17.169564298649	0.099999301921
36	90047	17.269563600767	0.099999302118
36	90604	17.369562903068	0.099999302301
36	91161	17.469562205533	0.099999302465
36	91718	17.569561508131	0.099999302598
36	92275	17.669560810827	0.099999302696
36	92832	17.769560113587	0.09999930276
36	93389	17.869559416374	0.099999302787
36	93946	17.969558719154	0.09999930278
36	94511	18.069558021897	0.099999302743
36	95068	18.169557324576	0.099999302679
36	95625	18.269556627173	0.099999302597
36	96182	18.369555929669	0.099999302496
36	96739	18.469555232048	0.099999302379
36	97296	18.569554534295	0.099999302247
36	97853	18.669566836401	0.100012302106
36	98410	18.769566138352	0.099999301951
36	98967	18.869565440142	0.09999930179
36	99524	18.969564741761	0.099999301619
36	100089	19.069564043199	0.099999301438
36	100646	19.16956334445	0.099999301251
36	101203	19.269562645505	0.099999301055
36	101760	19.369561946358	0.099999300853
36	102317	19.469561247002	0.099999300644
36	102874	19.569560547433	0.099999300431
36	103431	19.669559847652	0.099999300219
36	103988	19.769559147665	0.099999300013
36	104545	19.869558447484	0.099999299819
36	105102	19.969557747134	0.09999929965
36	105667	20.069557046642	0.099999299508
36	106224	20.169556346039	0.099999299397
36	106781	20.269555645365	0.099999299326
36	107338	20.369554944655	0.09999929929
36	107895	20.469554243944	0.099999299289
36	108452	20.569566543265	0.100012299321
36	109009	20.669565842638	0.099999299373
36	109566	20.769565142088	0.09999929945
36	110123	20.869564441634	0.099999299546
36	110680	20.96956374129	0.099999299656
36	111245	21.06956304107	0.09999929978
36	111802	21.169562340987	0.099999299917
36	112359	21.269561641051	0.099999300064
36	112916	21.369560941274	0.099999300223
36	113473	21.469560241663	0.099999300389
36	114030	21.569559542225	0.099999300562
36	114587	21.669558842971	0.099999300746
36	115144	21.769558143906	0.099999300935
36	115701	21.869557445039	0.099999301133
36	116258	21.969556746375	0.099999301336
36	116823	22.069556047922	0.099999301547
36	117380	22.169555349675	0.099999301753
36	117937	22.269554651628	0.099999301953
36	118494	22.369566953771	0.100012302143
36	119051	22.469566256079	0.099999302308
36	119608	22.569565558526	0.099999302447
36	120165	22.669564861078	0.099999302552
36	120722	22.769564163696	0.099999302618
36	121279	22.869563466346	0.09999930265
36	121836	22.969562768991	0.099999302645
36	122401	23.069562071605	0.099999302614
36	122958	23.169561374159	0.099999302554
36	123515	23.269560676633	0.099999302474
36	124072	23.369559979008	0.099999302375
36	124629	23.469559281271	0.099999302263
36	125186	23.569558583406	0.099999302135
36	125743	23.669557885401	0.099999301995
36	126300	23.769557187245	0.099999301844
36	126857	23.869556488928	0.099999301683
36	127414	23.969555790443	0.099999301515
36	127979	24.06955509178	0.099999301337
36	128536	24.169554392933	0.099999301153
36	129093	24.269566693893	0.10001230096
36	129650	24.369565994653	0.09999930076
36	130207	24.469565295207	0.099999300554
36	130764	24.56956459555	0.099999300343
36	131321	24.669563895682	0.099999300132
36	131878	24.76956319561	0.099999299928
36	132435	24.869562495346	0.099999299736
36	132992	24.969561794915	0.099999299569
36	133557	25.069561094344	0.099999299429
36	134114	25.169560393665	0.099999299321
36	134671	25.269559692919	0.099999299254
36	135228	25.36955899214	0.099999299221
36	135785	25.469558291359	0.099999299219
36	136342	25.569557590612	0.099999299253
36	136899	25.669556889923	0.099999299311
36	137456	25.769556189309	0.099999299386
36	138013	25.869555488795	0.099999299486
36	138570	25.969554788392	0.099999299597
36	139135	26.069554088116	0.099999299724
36	139692	26.169566387978	0.100012299862
36	140249	26.269565687989	0.099999300011
36	140806	26.369564988158	0.099999300169
36	141363	26.469564288495	0.099999300337
36	141920	26.569563589007	0.099999300512
36	142477	26.669562889702	0.099999300695
36	143034	26.769562190591	0.099999300889
36	143591	26.869561491678	0.099999301087
36	144148	26.969560792969	0.099999301291
36	144713	27.069560094469	0.0999993015
36	145270	27.169559396179	0.09999930171
36	145827	27.269558698093	0.099999301914
36	146384	27.369558000194	0.099999302101
36	146941	27.469557302466	0.099999302272
36	147498	27.569556604876	0.09999930241
36	148055	27.66955590739	0.099999302514
36	148612	27.769555209974	0.099999302584
36	149169	27.869554512589	0.099999302615
36	149726	27.969566815201	0.100012302612
36	150291	28.069566117781	0.09999930258
36	150848	28.169565420306	0.099999302525
36	151405	28.26956472275	0.099999302444
36	151962	28.369564025096	0.099999302346
36	152519	28.469563327329	0.099999302233
36	153076	28.569562629438	0.099999302109
36	153633	28.669561931406	0.099999301968
36	154190	28.769561233223	0.099999301817
36	154747	28.869560534882	0.099999301659
36	155304	28.969559836373	0.099999301491
36	155869	29.069559137685	0.099999301312
36	156426	29.169558438813	0.099999301128
36	156983	29.269557739751	0.099999300938
36	157540	29.369557040489	0.099999300738
36	158097	29.469556341021	0.099999300532
36	158654	29.569555641343	0.099999300322
36	159211	29.669554941456	0.099999300113
36	159768	29.769554241365	0.099999299909
36	160325	29.869566541085	0.10001229972
36	160882	29.969565840636	0.099999299551
36	161447	30.069565140046	0.09999929941
36	162004	30.169564439352	0.099999299306
36	162561	30.26956373859	0.099999299238
36	163118	30.369563037795	0.099999299205
36	163675	30.469562337001	0.099999299206
36	164232	30.569561636239	0.099999299238
36	164789	30.669560935534	0.099999299295
36	165346	30.769560234906	0.099999299372
36	165903	30.869559534377	0.099999299471
36	166460	30.969558833961	0.099999299584
36	167025	31.06955813367	0.099999299709
36	167582	31.169557433517	0.099999299847
36	168139	31.269556733508	0.099999299991
36	168696	31.369556033654	0.099999300146
36	169253	31.469555333957	0.099999300303
36	169810	31.569554634428	0.099999300471
36	170367	31.669566935069	0.100012300641
36	170924	31.769566235885	0.099999300816
36	171481	31.869565536877	0.099999300992
36	172038	31.969564838046	0.099999301169
36	172603	32.069564139396	0.09999930135
36	173160	32.169563440919	0.099999301523
36	173717	32.269562742598	0.099999301679
36	174274	32.369562044405	0.099999301807
36	174831	32.469561346292	0.099999301887
36	175388	32.569560648199	0.099999301907
36	175945	32.669559950041	0.099999301842
36	176502	32.769559251718	0.099999301677
36	177059	32.869558553108	0.09999930139
36	177616	32.969557854081	0.099999300973
36	178181	33.069557154492	0.099999300411
36	178738	33.169556454188	0.099999299696
36	179295	33.269555753009	0.099999298821
36	179852	33.369555050786	0.099999297777
36	180409	33.469554347349	0.099999296563
36	180966	33.569566642524	0.100012295175
36	181523	33.669565936132	0.099999293608
36	182080	33.769565227992	0.09999929186
36	182637	33.869564517924	0.099999289932
36	183194	33.969563805743	0.099999287819
36	183759	34.069563091265	0.099999285522
36	184316	34.169562374306	0.099999283041
36	184873	34.269561654678	0.099999280372
36	185430	34.369560932197	0.099999277519
36	185987	34.469560206676	0.099999274479
36	186544	34.569559477933	0.099999271257
36	187101	34.669558745791	0.099999267858
36	187658	34.76955801008	0.099999264289
36	188215	34.869557270646	0.099999260566
36	188772	34.96955652735	0.099999256704
36	189337	35.069555780074	0.099999252724
36	189894	35.169555028717	0.099999248643
36	190451	35.269554273199	0.099999244482
36	191008	35.369566513455	0.100012240256
36	191565	35.469565749437	0.099999235982
36	192122	35.569564981114	0.099999231677
36	192679	35.669564208455	0.099999227341
36	193236	35.769563431447	0.099999222992
36	193793	35.869562650078	0.099999218631
36	194350	35.969561864344	0.099999214266
36	194915	36.069561074246	0.099999209902
36	195472	36.16956027979	0.099999205544
36	196029	36.269559480985	0.099999201195
36	196586	36.369558677845	0.09999919686
36	197143	36.469557870383	0.099999192538
36	197700	36.569557058619	0.099999188236
36	198257	36.669556242574	0.099999183955
36	198814	36.769555422271	0.099999179697
36	199371	36.869554597735	0.099999175464
36	199928	36.969566768993	0.100012171258
36	200493	37.069565936072	0.099999167079
36	201050	37.169565098994	0.099999162922
36	201607	37.269564257777	0.099999158783
36	202164	37.369563412424	0.099999154647
36	202721	37.469562562924	0.0999991505
36	203278	37.569561709253	0.099999146329
36	203835	37.669560851366	0.099999142113
36	204392	37.769559989202	0.099999137836
36	204949	37.869559122683	0.099999133481
36	205506	37.969558251722	0.099999129039
36	206071	38.069557376221	0.099999124499
36	206628	38.169556496073	0.099999119852
36	207185	38.269555611166	0.099999115093
36	207742	38.369554721381	0.099999110215
36	208299	38.4695668266	0.100012105219
36	208856	38.569565926696	0.099999100096
36	209413	38.669565021546	0.09999909485
36	209970	38.769564111023	0.099999089477
36	210527	38.869563195001	0.099999083978
36	211084	38.96956227335	0.099999078349
