file 968054 1501602299                                          
version 2
run SinusoidalJammingDetail-460-20170801-17:44:39-102753
attr CACCSpacing 5
attr attackAcc -30
attr attackPos 7
attr attackSpeed 150
attr attackStart 31
attr attacker 1
attr beaconInterval 0.1
attr configname SinusoidalJammingDetail
attr controller 1
attr datetime 20170801-17:44:39
attr experiment SinusoidalJammingDetail
attr fakeAcc "(1 == 4)"
attr fakePos "(1 == 2)"
attr fakeSpeed "(1 == 3)"
attr inifile omnetpp_460.ini
attr iterationvars "$leaderSpeed=120, $controller=1, $CACCSpacing=5, $sController=\"CACC\", $attacker=1, $attackStart=31, $attackSpeed=150, $attackPos=7, $attackAcc=-30, $0=5, $1=0, $nCars=8, $platoonSize=8, $nLanes=1, $beaconInterval=0.1, $priority=2, $packetSize=200, $ploegH=0.5, $leaderHeadway=1.2, $fakeSpeed=(1 == 3), $fakeAcc=(1 == 4), $fakePos=(1 == 2)"
attr iterationvarsf leaderSpeed=120,controller=1,CACCSpacing=5,sController=CACC,attacker=1,attackStart=31,attackSpeed=150,attackPos=7,attackAcc=-30,5,0,nCars=8,platoonSize=8,nLanes=1,beaconInterval=0.1,priority=2,packetSize=200,ploegH=0.5,leaderHeadway=1.2,fakeSpeed=(1_==_3),fakeAcc=(1_==_4),fakePos=(1_==_2)-
attr leaderHeadway 1.2
attr leaderSpeed 120
attr measurement "$leaderSpeed=120, $controller=1, $CACCSpacing=5, $sController=\"CACC\", $attacker=1, $attackStart=31, $attackSpeed=150, $attackPos=7, $attackAcc=-30, $0=5, $1=0, $nCars=8, $platoonSize=8, $nLanes=1, $beaconInterval=0.1, $priority=2, $packetSize=200, $ploegH=0.5, $leaderHeadway=1.2, $fakeSpeed=(1 == 3), $fakeAcc=(1 == 4), $fakePos=(1 == 2)"
attr nCars 8
attr nLanes 1
attr network scenario
attr packetSize 200
attr platoonSize 8
attr ploegH 0.5
attr priority 2
attr processid 102753
attr repetition 0
attr replication #0
attr resultdir results
attr runnumber 460
attr sController "\"CACC\""
attr seedset 0
param **.coreDebug false
param **.debug false
param **.headway 0.1s
param **.numberOfCars 8
param **.numberOfCarsPerPlatoon 8
param **.numberOfLanes 1
param **.numericController 1
param **.traffic.nCars 8
param **.traffic.nLanes 1
param **.traffic.platoonInsertDistance 5m
param **.traffic.platoonInsertHeadway 0s
param **.traffic.platoonInsertSpeed 120kmph
param **.traffic.platoonInsertTime "1 s"
param **.traffic.platoonLeaderHeadway 1.2s
param **.traffic.platoonSize 8
param **.traffic.platooningVType "\"vtypeauto\""
param **.traffic_type "\"PlatoonsTrafficManager\""
param *.**.nic.mac1609_4.bitrate 6Mbps
param *.**.nic.mac1609_4.txPower 100mW
param *.**.nic.mac1609_4.useServiceChannel false
param *.**.nic.phy80211p.analogueModels "xmldoc(\"config.xml\")"
param *.**.nic.phy80211p.decider "xmldoc(\"config.xml\")"
param *.**.nic.phy80211p.maxTXPower 100mW
param *.**.nic.phy80211p.sensitivity -94dBm
param *.**.nic.phy80211p.thermalNoise -95dBm
param *.**.nic.phy80211p.usePropagationDelay true
param *.**.nic.phy80211p.useThermalNoise true
param *.annotations.draw false
param *.connectionManager.alpha 2.0
param *.connectionManager.carrierFrequency "5.890e9 Hz"
param *.connectionManager.pMax 100mW
param *.connectionManager.sat -94dBm
param *.connectionManager.sendDirect true
param *.manager.autoShutdown true
param *.manager.commandLine "\"sumo --remote-port $port --seed $seed --configuration-file $configFile\""
param *.manager.configFile "\"./sumocfg/freeway.sumo.cfg\""
param *.manager.host "\"localhost\""
param *.manager.margin 25
param *.manager.moduleDisplayString "\"\""
param *.manager.moduleName "\"node\""
param *.manager.moduleType "\"Car\""
param *.manager.updateInterval 0.01s
param *.node[*].appl.attackStart 31s
param *.node[*].appl.attackerType 1
param *.node[*].appl.simulationDuration "60 s"
param *.node[*].appl_type "\"SimplePlatooningApp\""
param *.node[*].helper.nCars 8
param *.node[*].helper.nLanes 1
param *.node[*].helper.platoonSize 8
param *.node[*].helper_type "\"PositionHelper\""
param *.node[*].mobility.x 0
param *.node[*].mobility.y 0
param *.node[*].mobility.z 1.895
param *.node[*].prot.attackStart 31s
param *.node[*].prot.attackerType 1
param *.node[*].prot.attackingNode 3
param *.node[*].prot.beaconingInterval 0.1s
param *.node[*].prot.fakeAcc "(1 == 4)"
param *.node[*].prot.fakePos "(1 == 2)"
param *.node[*].prot.fakeSpeed "(1 == 3)"
param *.node[*].prot.maliciousAcc "-30 mpss"
param *.node[*].prot.maliciousSpeed 150kmph
param *.node[*].prot.packetSize 200
param *.node[*].prot.priority 2
param *.node[*].prot.shiftX "7 m"
param *.node[*].prot.useControllerAcceleration true
param *.node[*].protocol_type "\"SimplePlatooningBeaconing\""
param *.node[*].scenario.accHeadway 0.1s
param *.node[*].scenario.caccC1 0.5
param *.node[*].scenario.caccOmegaN "0.2 Hz"
param *.node[*].scenario.caccSpacing 5m
param *.node[*].scenario.caccXi 1
param *.node[*].scenario.controller "\"CACC\""
param *.node[*].scenario.engineTau "0.5 s"
param *.node[*].scenario.leaderHeadway 1.2s
param *.node[*].scenario.leaderOscillationFrequency "0.2 Hz"
param *.node[*].scenario.leaderSpeed 120kmph
param *.node[*].scenario.oscillationAmplitude "10 kmph"
param *.node[*].scenario.ploegH 0.5s
param *.node[*].scenario.ploegKd 0.7
param *.node[*].scenario.ploegKp 0.2
param *.node[*].scenario.startOscillating "5 s"
param *.node[*].scenario.useRealisticEngine false
param *.node[*].scenario_type "\"SinusoidalScenario\""
param *.node[*].unicast.packetLossRate 0
param *.obstacles.debug false
param *.playgroundSizeX 65000m
param *.playgroundSizeY 25000m
param *.playgroundSizeZ 50m
param *.world.use2D false
param *.world.useTorus false

vector 0  scenario.node[0].appl  distance  ETV
vector 1  scenario.node[0].appl  relativeSpeed  ETV
vector 2  scenario.node[0].appl  nodeId  ETV
vector 6  scenario.node[0].appl  acceleration  ETV
vector 7  scenario.node[0].appl  controllerAcceleration  ETV
vector 3  scenario.node[0].appl  speed  ETV
vector 4  scenario.node[0].appl  posx  ETV
vector 5  scenario.node[0].appl  posy  ETV
vector 22  scenario.node[1].appl  distance  ETV
vector 23  scenario.node[1].appl  relativeSpeed  ETV
vector 24  scenario.node[1].appl  nodeId  ETV
vector 28  scenario.node[1].appl  acceleration  ETV
vector 29  scenario.node[1].appl  controllerAcceleration  ETV
vector 25  scenario.node[1].appl  speed  ETV
vector 26  scenario.node[1].appl  posx  ETV
vector 27  scenario.node[1].appl  posy  ETV
vector 44  scenario.node[2].appl  distance  ETV
vector 45  scenario.node[2].appl  relativeSpeed  ETV
vector 46  scenario.node[2].appl  nodeId  ETV
vector 50  scenario.node[2].appl  acceleration  ETV
vector 51  scenario.node[2].appl  controllerAcceleration  ETV
vector 47  scenario.node[2].appl  speed  ETV
vector 48  scenario.node[2].appl  posx  ETV
vector 49  scenario.node[2].appl  posy  ETV
vector 66  scenario.node[3].appl  distance  ETV
vector 67  scenario.node[3].appl  relativeSpeed  ETV
vector 68  scenario.node[3].appl  nodeId  ETV
vector 72  scenario.node[3].appl  acceleration  ETV
vector 73  scenario.node[3].appl  controllerAcceleration  ETV
vector 69  scenario.node[3].appl  speed  ETV
vector 70  scenario.node[3].appl  posx  ETV
vector 71  scenario.node[3].appl  posy  ETV
vector 88  scenario.node[4].appl  distance  ETV
vector 89  scenario.node[4].appl  relativeSpeed  ETV
vector 90  scenario.node[4].appl  nodeId  ETV
vector 94  scenario.node[4].appl  acceleration  ETV
vector 95  scenario.node[4].appl  controllerAcceleration  ETV
vector 91  scenario.node[4].appl  speed  ETV
vector 92  scenario.node[4].appl  posx  ETV
vector 93  scenario.node[4].appl  posy  ETV
vector 110  scenario.node[5].appl  distance  ETV
vector 111  scenario.node[5].appl  relativeSpeed  ETV
vector 112  scenario.node[5].appl  nodeId  ETV
vector 116  scenario.node[5].appl  acceleration  ETV
vector 117  scenario.node[5].appl  controllerAcceleration  ETV
vector 113  scenario.node[5].appl  speed  ETV
vector 114  scenario.node[5].appl  posx  ETV
vector 115  scenario.node[5].appl  posy  ETV
vector 132  scenario.node[6].appl  distance  ETV
vector 133  scenario.node[6].appl  relativeSpeed  ETV
vector 134  scenario.node[6].appl  nodeId  ETV
vector 138  scenario.node[6].appl  acceleration  ETV
vector 139  scenario.node[6].appl  controllerAcceleration  ETV
vector 135  scenario.node[6].appl  speed  ETV
vector 136  scenario.node[6].appl  posx  ETV
vector 137  scenario.node[6].appl  posy  ETV
vector 154  scenario.node[7].appl  distance  ETV
vector 155  scenario.node[7].appl  relativeSpeed  ETV
vector 156  scenario.node[7].appl  nodeId  ETV
vector 160  scenario.node[7].appl  acceleration  ETV
vector 161  scenario.node[7].appl  controllerAcceleration  ETV
vector 157  scenario.node[7].appl  speed  ETV
vector 158  scenario.node[7].appl  posx  ETV
vector 159  scenario.node[7].appl  posy  ETV
vector 80  scenario.node[3].prot  frontDelay  ETV
vector 78  scenario.node[3].prot  frontDelayId  ETV
vector 58  scenario.node[2].prot  frontDelay  ETV
vector 56  scenario.node[2].prot  frontDelayId  ETV
vector 168  scenario.node[7].prot  frontDelay  ETV
vector 166  scenario.node[7].prot  frontDelayId  ETV
vector 35  scenario.node[1].prot  leaderDelay  ETV
vector 33  scenario.node[1].prot  leaderDelayId  ETV
vector 36  scenario.node[1].prot  frontDelay  ETV
vector 34  scenario.node[1].prot  frontDelayId  ETV
vector 57  scenario.node[2].prot  leaderDelay  ETV
vector 55  scenario.node[2].prot  leaderDelayId  ETV
vector 79  scenario.node[3].prot  leaderDelay  ETV
vector 77  scenario.node[3].prot  leaderDelayId  ETV
vector 101  scenario.node[4].prot  leaderDelay  ETV
vector 99  scenario.node[4].prot  leaderDelayId  ETV
vector 123  scenario.node[5].prot  leaderDelay  ETV
vector 121  scenario.node[5].prot  leaderDelayId  ETV
vector 145  scenario.node[6].prot  leaderDelay  ETV
vector 143  scenario.node[6].prot  leaderDelayId  ETV
vector 167  scenario.node[7].prot  leaderDelay  ETV
vector 165  scenario.node[7].prot  leaderDelayId  ETV
vector 124  scenario.node[5].prot  frontDelay  ETV
vector 122  scenario.node[5].prot  frontDelayId  ETV
vector 102  scenario.node[4].prot  frontDelay  ETV
vector 100  scenario.node[4].prot  frontDelayId  ETV
vector 146  scenario.node[6].prot  frontDelay  ETV
vector 144  scenario.node[6].prot  frontDelayId  ETV
vector 8  scenario.node[0].prot  nodeId  ETV
vector 9  scenario.node[0].prot  busyTime  ETV
vector 10  scenario.node[0].prot  collisions  ETV
vector 30  scenario.node[1].prot  nodeId  ETV
vector 31  scenario.node[1].prot  busyTime  ETV
vector 32  scenario.node[1].prot  collisions  ETV
vector 52  scenario.node[2].prot  nodeId  ETV
vector 53  scenario.node[2].prot  busyTime  ETV
vector 54  scenario.node[2].prot  collisions  ETV
vector 74  scenario.node[3].prot  nodeId  ETV
vector 75  scenario.node[3].prot  busyTime  ETV
vector 76  scenario.node[3].prot  collisions  ETV
vector 96  scenario.node[4].prot  nodeId  ETV
vector 97  scenario.node[4].prot  busyTime  ETV
vector 98  scenario.node[4].prot  collisions  ETV
vector 118  scenario.node[5].prot  nodeId  ETV
vector 119  scenario.node[5].prot  busyTime  ETV
vector 120  scenario.node[5].prot  collisions  ETV
vector 140  scenario.node[6].prot  nodeId  ETV
vector 141  scenario.node[6].prot  busyTime  ETV
vector 142  scenario.node[6].prot  collisions  ETV
vector 162  scenario.node[7].prot  nodeId  ETV
vector 163  scenario.node[7].prot  busyTime  ETV
vector 164  scenario.node[7].prot  collisions  ETV
7	11234 8142 232 189846 1.11 35.11 341 -1.5 1.5 -11.677955995866 541.60883058508
6	19376 10703 232 189846 1.11 35.11 341 -1.4722746795918 1.4513407705138 -12.909500527321 366.44298582008
5	30079 6873 232 189846 1.11 35.11 341 36.55 36.55 12463.55 455542.7525
4	36952 10239 232 189846 1.11 35.11 341 99.773198318881 1237.1683526541 228355.69958528 189886636.79478
3	47191 10246 232 189846 1.11 35.11 341 32.043531245463 35.298048086563 11406.83285713 381823.76982333
1	57437 5509 232 189846 1.11 35.11 341 0 0 0 0
0	62946 5850 232 189846 1.11 35.11 341 -1 -1 -341 341
2	68796 5509 232 189846 1.11 35.11 341 0 0 0 0
10	74305 483 5102 189146 2 35 34 0 0 0 0
9	74788 654 5102 189146 2 35 34 0.022969 0.02625 0.889219 0.023266637461
8	75442 449 5102 189146 2 35 34 0 0 0 0
51	75891 10958 234 189848 1.11 35.11 341 -1.4952754280285 1.497099229686 32.029891377016 489.52783105194
50	86849 11014 234 189848 1.11 35.11 341 -1.4761121252597 1.4494360537391 30.480219471654 347.01088603389
49	97863 7214 234 189848 1.11 35.11 341 36.55 36.55 12463.55 455542.7525
48	105077 10596 234 189848 1.11 35.11 341 81.773198318481 1224.6601585567 222260.34838142 181883219.3371
47	115673 10579 234 189848 1.11 35.11 341 32.045162833843 36.365106515915 11463.267118406 385707.88459814
45	126252 11510 234 189848 1.11 35.11 341 -0.4870333995346 0.039108598996961 -6.7913655434173 2.38012254266
44	137762 10565 234 189848 1.11 35.11 341 4.3732788397133 5.073511482403 1699.4782478359 8472.3360147463
46	148327 5850 234 189848 1.11 35.11 341 2 2 682 1364
58	154177 13595 900 189958 1.229657900624 35.129654495669 340 0.099998789961 0.100011842923 33.999995435627 3.3999990917485
57	167772 13524 1038 189539 1.254911260874 35.054883026441 339 0.099907839705 0.100089841908 33.899983606149 3.3899972796939
56	181296 9200 900 189958 1.229657900624 35.129654495669 340 2 2 680 1360
55	190496 9154 1038 189539 1.254911260874 35.054883026441 339 2 2 678 1356
54	199650 483 5104 189148 2 35 34 0 0 0 0
53	200133 688 5104 189148 2 35 34 0.022969 0.02625 0.889219 0.023266637461
52	200821 483 5104 189148 2 35 34 2 2 68 136
73	201304 10961 235 189849 1.11 35.11 341 -1.4890877725994 1.4891493121668 35.377357644286 481.72911978166
72	212265 11003 235 189849 1.11 35.11 341 -1.46348876643 1.436258111837 33.296774298457 345.63181797059
71	223268 7214 235 189849 1.11 35.11 341 36.55 36.55 12463.55 455542.7525
70	230482 10593 235 189849 1.11 35.11 341 72.773198318481 1215.9893664529 219193.80451472 177917829.37603
69	241075 10596 235 189849 1.11 35.11 341 32.058137221663 36.641316520386 11466.65695874 385948.38673271
67	251671 11622 235 189849 1.11 35.11 341 -0.279750510502 0.020412781438374 -3.6946425287448 0.68310839764904
66	263293 10555 235 189849 1.11 35.11 341 4.6763163038972 5.0493612979845 1702.6116635075 8501.7901447834
68	273848 5850 235 189849 1.11 35.11 341 3 3 1023 3069
80	279698 13603 832 189890 1.213904870603 35.113901468813 340 0.099998790191 0.100011843023 33.999995438792 3.3999990923812
79	293301 13554 1044 189545 1.254911290894 35.054883055419 339 0.099907839706 0.100089841918 33.899983605107 3.3899972794855
78	306855 9197 832 189890 1.213904870603 35.113901468813 340 3 3 1020 3060
77	316052 9170 1044 189545 1.254911290894 35.054883055419 339 3 3 1017 3051
76	325222 483 5105 189149 2 35 34 0 0 0 0
75	325705 688 5105 189149 2 35 34 0.022968 0.02625 0.889218 0.023266591524
74	326393 483 5105 189149 2 35 34 3 3 102 306
95	326876 10939 236 189850 1.11 35.11 341 -1.482153724041 1.4817994860489 37.215241258041 474.09110554072
94	337815 10983 236 189850 1.11 35.11 341 -1.4527427935754 1.4261913662551 34.854809305583 343.47460780661
93	348798 7214 236 189850 1.11 35.11 341 36.55 36.55 12463.55 455542.7525
92	356012 10589 236 189850 1.11 35.11 341 63.773198318481 1207.1668286614 216125.81805124 174004033.42118
91	366601 10587 236 189850 1.11 35.11 341 32.068521286776 36.794324094846 11468.485671971 386077.25650313
89	377188 11675 236 189850 1.11 35.11 341 -0.15791618932295 0.014563179925339 -2.1616809734866 0.21743834690691
88	388863 10574 236 189850 1.11 35.11 341 4.8255979429755 5.0268302668283 1704.0230377464 8515.4269177154
90	399437 5850 236 189850 1.11 35.11 341 4 4 1364 5456
102	405287 13894 1246 189748 1.303561561081 35.103559322472 339 0.099998790479 0.100011843011 33.899996601973 3.3899993250159
101	419181 13901 1050 189551 1.254911320915 35.054883084878 339 0.099907839704 0.100089841921 33.899983604545 3.3899972793731
100	433082 9511 1246 189748 1.303561561081 35.103559322472 339 4 4 1356 5424
99	442593 9185 1050 189551 1.254911320915 35.054883084878 339 4 4 1356 5424
98	451778 483 5106 189150 2 35 34 0 0 0 0
97	452261 688 5106 189150 2 35 34 0.022969 0.02625 0.889219 0.023266637461
96	452949 483 5106 189150 2 35 34 4 4 136 544
117	453432 11301 237 189851 1.11 35.11 341 -1.489667262386 1.491466760912 39.113196146499 489.39702524651
116	464733 11334 237 189851 1.11 35.11 341 -1.447561898987 1.4230601819897 35.811658620018 342.8531221588
115	476067 7555 237 189851 1.11 35.11 341 36.55 36.55 12463.55 455542.7525
114	483622 10922 237 189851 1.11 35.11 341 54.773196411133 1198.3160217563 213058.00305742 170145280.67895
113	494544 10940 237 189851 1.11 35.11 341 32.071157075721 36.884904807137 11470.009783993 386184.65987112
111	505484 11919 237 189851 1.11 35.11 341 -0.096360163740719 0.039951808960105 -1.8726601148854 0.32398986435756
110	517403 10928 237 189851 1.11 35.11 341 4.8526185193195 5.0346852361465 1703.8454760612 8513.7033695447
112	528331 6191 237 189851 1.11 35.11 341 5 5 1705 8525
124	534522 13884 1172 189673 1.26574753106 35.065758293122 339 0.099998794599 0.100011842825 33.900009602644 3.3900019252883
123	548406 13877 1056 189557 1.254911350936 35.054883114419 339 0.099907839698 0.100089841915 33.899983604065 3.3899972792771
122	562283 9515 1172 189673 1.26574753106 35.065758293122 339 5 5 1695 8475
121	571798 9506 1056 189557 1.254911350936 35.054883114419 339 5 5 1695 8475
120	581304 517 5107 189151 2 35 34 0 0 0 0
119	581821 722 5107 189151 2 35 34 0.022968 0.02625 0.889218 0.023266591524
118	582543 517 5107 189151 2 35 34 5 5 170 850
139	583060 11270 238 189852 1.11 35.11 341 -1.4807582973376 1.4812783517611 39.057880451377 479.70120609037
138	594330 11308 238 189852 1.11 35.11 341 -1.4503739007857 1.4264948331451 36.361499551738 346.93360033246
137	605638 7555 238 189852 1.11 35.11 341 36.55 36.55 12463.55 455542.7525
136	613193 10917 238 189852 1.11 35.11 341 45.773196411133 1189.3931074615 209988.99874022 166338788.71922
135	624110 10932 238 189852 1.11 35.11 341 32.064573672914 36.941664685294 11470.800686942 386243.62490901
133	635042 11946 238 189852 1.11 35.11 341 -0.063027962165215 0.022610065418895 -1.1490195357038 0.092665717625768
132	646988 10914 238 189852 1.11 35.11 341 4.9240494924484 5.0142923059555 1705.0201352521 8525.2489548493
134	657902 6191 238 189852 1.11 35.11 341 6 6 2046 12276
146	664093 13892 1312 189814 1.305157621123 35.105155381764 339 0.099998790432 0.100011842696 33.899996601223 3.3899993248665
145	677985 13891 1062 189563 1.254911380957 35.054883144194 339 0.099907839699 0.100089841913 33.899983603819 3.3899972792279
144	691876 9513 1312 189814 1.305157621123 35.105155381764 339 6 6 2034 12204
143	701389 9516 1062 189563 1.254911380957 35.054883144194 339 6 6 2034 12204
142	710905 517 5108 189152 2 35 34 0 0 0 0
141	711422 722 5108 189152 2 35 34 0.022969 0.02625 0.889219 0.023266637461
140	712144 517 5108 189152 2 35 34 6 6 204 1224
161	712661 11300 239 189853 1.11 35.11 341 -1.4938774147282 1.4938088648604 40.136056914493 496.47565347012
160	723961 11329 239 189853 1.11 35.11 341 -1.4564665523054 1.4312228030676 36.693544902265 349.46526237535
159	735290 7555 239 189853 1.11 35.11 341 36.55 36.55 12463.55 455542.7525
158	742845 10927 239 189853 1.11 35.11 341 36.773196411133 1180.3899754607 206918.72403277 162584753.00202
157	753772 10927 239 189853 1.11 35.11 341 32.061985112084 36.970539241096 11470.779837805 386244.67918357
155	764699 12157 239 189853 1.11 35.11 341 -0.035442153971744 0.011006410312881 -0.34276585848166 0.021209089194853
154	776856 10911 239 189853 1.11 35.11 341 4.9785169973161 5.0256964368233 1706.2742904713 8537.8087326929
156	787767 6191 239 189853 1.11 35.11 341 7 7 2387 16709
168	793958 13870 975 189476 1.254433050728 35.054430853553 339 0.099998793848 0.100011842991 33.899996643407 3.3899993333029
167	807828 13885 1068 189569 1.254911410977 35.054883174231 339 0.099907839704 0.10008984192 33.899983603836 3.3899972792313
166	821713 9510 975 189476 1.254433050728 35.054430853553 339 7 7 2373 16611
165	831223 9510 1068 189569 1.254911410977 35.054883174231 339 7 7 2373 16611
164	840733 517 5109 189153 2 35 34 0 0 0 0
163	841250 722 5109 189153 2 35 34 0.022969 0.02625 0.889219 0.023266637461
162	841972 517 5109 189153 2 35 34 7 7 238 1666
22	842489 10599 233 189994 1.11 35.15 342 0 5.185418841791 1669.0016412487 8283.016339972
23	853088 11506 233 189994 1.11 35.15 342 -3.8426527854516 0.20593569426876 -53.611870090795 160.17483348876
24	864594 5868 233 189994 1.11 35.15 342 1 1 342 342
25	870462 10620 233 189994 1.11 35.15 342 32.039353521387 35.885631279661 11492.61680072 386530.23890524
26	881082 10606 233 189994 1.11 35.15 342 90.773198318481 1234.459124441 226558.15503472 187419995.64051
27	891688 7236 233 189994 1.11 35.15 342 36.55 36.55 12500.1 456878.655
28	898924 11031 233 189994 1.11 35.15 342 -1.4840815548887 1.4595456971342 25.68545931441 343.51346272004
29	909955 11011 233 189994 1.11 35.15 342 -1.5129716532521 1.5129648401275 26.339821053273 495.25361364505
30	920966 483 5103 189147 2 35 34 1 1 34 34
31	921449 688 5103 189147 2 35 34 0.022969 0.02625 0.889219 0.023266637461
32	922137 483 5103 189147 2 35 34 0 0 0 0
33	922620 9174 1032 189533 1.254911230853 35.054882998447 339 1 1 339 339
34	931794 9174 1032 189533 1.254911230853 35.054882998447 339 1 1 339 339
35	940968 13543 1032 189533 1.254911230853 35.054882998447 339 0.099907839697 0.100089841893 33.899983608176 3.3899972800993
36	954511 13543 1032 189533 1.254911230853 35.054882998447 339 0.099907839697 0.100089841893 33.899983608176 3.3899972800993
