file 1406579 1501596309                                         
version 2
run SinusoidalJammingDetail-61-20170801-16:04:43-94932
attr CACCSpacing 9
attr attackAcc -30
attr attackPos 7
attr attackSpeed 150
attr attackStart 30
attr attacker 1
attr beaconInterval 0.1
attr configname SinusoidalJammingDetail
attr controller 1
attr datetime 20170801-16:04:43
attr experiment SinusoidalJammingDetail
attr fakeAcc "(1 == 4)"
attr fakePos "(1 == 2)"
attr fakeSpeed "(1 == 3)"
attr inifile omnetpp_61.ini
attr iterationvars "$leaderSpeed=50, $controller=1, $CACCSpacing=9, $sController=\"CACC\", $attacker=1, $attackStart=30, $attackSpeed=150, $attackPos=7, $attackAcc=-30, $0=9, $1=0, $nCars=8, $platoonSize=8, $nLanes=1, $beaconInterval=0.1, $priority=2, $packetSize=200, $ploegH=0.5, $leaderHeadway=1.2, $fakeSpeed=(1 == 3), $fakeAcc=(1 == 4), $fakePos=(1 == 2)"
attr iterationvarsf leaderSpeed=50,controller=1,CACCSpacing=9,sController=CACC,attacker=1,attackStart=30,attackSpeed=150,attackPos=7,attackAcc=-30,9,0,nCars=8,platoonSize=8,nLanes=1,beaconInterval=0.1,priority=2,packetSize=200,ploegH=0.5,leaderHeadway=1.2,fakeSpeed=(1_==_3),fakeAcc=(1_==_4),fakePos=(1_==_2)-
attr leaderHeadway 1.2
attr leaderSpeed 50
attr measurement "$leaderSpeed=50, $controller=1, $CACCSpacing=9, $sController=\"CACC\", $attacker=1, $attackStart=30, $attackSpeed=150, $attackPos=7, $attackAcc=-30, $0=9, $1=0, $nCars=8, $platoonSize=8, $nLanes=1, $beaconInterval=0.1, $priority=2, $packetSize=200, $ploegH=0.5, $leaderHeadway=1.2, $fakeSpeed=(1 == 3), $fakeAcc=(1 == 4), $fakePos=(1 == 2)"
attr nCars 8
attr nLanes 1
attr network scenario
attr packetSize 200
attr platoonSize 8
attr ploegH 0.5
attr priority 2
attr processid 94932
attr repetition 1
attr replication #1
attr resultdir results
attr runnumber 61
attr sController "\"CACC\""
attr seedset 1
param **.coreDebug false
param **.debug false
param **.headway 0.1s
param **.numberOfCars 8
param **.numberOfCarsPerPlatoon 8
param **.numberOfLanes 1
param **.numericController 1
param **.traffic.nCars 8
param **.traffic.nLanes 1
param **.traffic.platoonInsertDistance 9m
param **.traffic.platoonInsertHeadway 0s
param **.traffic.platoonInsertSpeed 50kmph
param **.traffic.platoonInsertTime "1 s"
param **.traffic.platoonLeaderHeadway 1.2s
param **.traffic.platoonSize 8
param **.traffic.platooningVType "\"vtypeauto\""
param **.traffic_type "\"PlatoonsTrafficManager\""
param *.**.nic.mac1609_4.bitrate 6Mbps
param *.**.nic.mac1609_4.txPower 100mW
param *.**.nic.mac1609_4.useServiceChannel false
param *.**.nic.phy80211p.analogueModels "xmldoc(\"config.xml\")"
param *.**.nic.phy80211p.decider "xmldoc(\"config.xml\")"
param *.**.nic.phy80211p.maxTXPower 100mW
param *.**.nic.phy80211p.sensitivity -94dBm
param *.**.nic.phy80211p.thermalNoise -95dBm
param *.**.nic.phy80211p.usePropagationDelay true
param *.**.nic.phy80211p.useThermalNoise true
param *.annotations.draw false
param *.connectionManager.alpha 2.0
param *.connectionManager.carrierFrequency "5.890e9 Hz"
param *.connectionManager.pMax 100mW
param *.connectionManager.sat -94dBm
param *.connectionManager.sendDirect true
param *.manager.autoShutdown true
param *.manager.commandLine "\"sumo --remote-port $port --seed $seed --configuration-file $configFile\""
param *.manager.configFile "\"./sumocfg/freeway.sumo.cfg\""
param *.manager.host "\"localhost\""
param *.manager.margin 25
param *.manager.moduleDisplayString "\"\""
param *.manager.moduleName "\"node\""
param *.manager.moduleType "\"Car\""
param *.manager.updateInterval 0.01s
param *.node[*].appl.attackStart 30s
param *.node[*].appl.attackerType 1
param *.node[*].appl.simulationDuration "60 s"
param *.node[*].appl_type "\"SimplePlatooningApp\""
param *.node[*].helper.nCars 8
param *.node[*].helper.nLanes 1
param *.node[*].helper.platoonSize 8
param *.node[*].helper_type "\"PositionHelper\""
param *.node[*].mobility.x 0
param *.node[*].mobility.y 0
param *.node[*].mobility.z 1.895
param *.node[*].prot.attackStart 30s
param *.node[*].prot.attackerType 1
param *.node[*].prot.attackingNode 3
param *.node[*].prot.beaconingInterval 0.1s
param *.node[*].prot.fakeAcc "(1 == 4)"
param *.node[*].prot.fakePos "(1 == 2)"
param *.node[*].prot.fakeSpeed "(1 == 3)"
param *.node[*].prot.maliciousAcc "-30 mpss"
param *.node[*].prot.maliciousSpeed 150kmph
param *.node[*].prot.packetSize 200
param *.node[*].prot.priority 2
param *.node[*].prot.shiftX "7 m"
param *.node[*].prot.useControllerAcceleration true
param *.node[*].protocol_type "\"SimplePlatooningBeaconing\""
param *.node[*].scenario.accHeadway 0.1s
param *.node[*].scenario.caccC1 0.5
param *.node[*].scenario.caccOmegaN "0.2 Hz"
param *.node[*].scenario.caccSpacing 9m
param *.node[*].scenario.caccXi 1
param *.node[*].scenario.controller "\"CACC\""
param *.node[*].scenario.engineTau "0.5 s"
param *.node[*].scenario.leaderHeadway 1.2s
param *.node[*].scenario.leaderOscillationFrequency "0.2 Hz"
param *.node[*].scenario.leaderSpeed 50kmph
param *.node[*].scenario.oscillationAmplitude "10 kmph"
param *.node[*].scenario.ploegH 0.5s
param *.node[*].scenario.ploegKd 0.7
param *.node[*].scenario.ploegKp 0.2
param *.node[*].scenario.startOscillating "5 s"
param *.node[*].scenario.useRealisticEngine false
param *.node[*].scenario_type "\"SinusoidalScenario\""
param *.node[*].unicast.packetLossRate 0
param *.obstacles.debug false
param *.playgroundSizeX 65000m
param *.playgroundSizeY 25000m
param *.playgroundSizeZ 50m
param *.world.use2D false
param *.world.useTorus false

vector 0  scenario.node[0].appl  distance  ETV
vector 1  scenario.node[0].appl  relativeSpeed  ETV
vector 2  scenario.node[0].appl  nodeId  ETV
vector 6  scenario.node[0].appl  acceleration  ETV
vector 7  scenario.node[0].appl  controllerAcceleration  ETV
vector 3  scenario.node[0].appl  speed  ETV
vector 4  scenario.node[0].appl  posx  ETV
vector 5  scenario.node[0].appl  posy  ETV
vector 22  scenario.node[1].appl  distance  ETV
vector 23  scenario.node[1].appl  relativeSpeed  ETV
vector 24  scenario.node[1].appl  nodeId  ETV
vector 28  scenario.node[1].appl  acceleration  ETV
vector 29  scenario.node[1].appl  controllerAcceleration  ETV
vector 25  scenario.node[1].appl  speed  ETV
vector 26  scenario.node[1].appl  posx  ETV
vector 27  scenario.node[1].appl  posy  ETV
vector 44  scenario.node[2].appl  distance  ETV
vector 45  scenario.node[2].appl  relativeSpeed  ETV
vector 46  scenario.node[2].appl  nodeId  ETV
vector 50  scenario.node[2].appl  acceleration  ETV
vector 51  scenario.node[2].appl  controllerAcceleration  ETV
vector 47  scenario.node[2].appl  speed  ETV
vector 48  scenario.node[2].appl  posx  ETV
vector 49  scenario.node[2].appl  posy  ETV
vector 66  scenario.node[3].appl  distance  ETV
vector 67  scenario.node[3].appl  relativeSpeed  ETV
vector 68  scenario.node[3].appl  nodeId  ETV
vector 72  scenario.node[3].appl  acceleration  ETV
vector 73  scenario.node[3].appl  controllerAcceleration  ETV
vector 69  scenario.node[3].appl  speed  ETV
vector 70  scenario.node[3].appl  posx  ETV
vector 71  scenario.node[3].appl  posy  ETV
vector 88  scenario.node[4].appl  distance  ETV
vector 89  scenario.node[4].appl  relativeSpeed  ETV
vector 90  scenario.node[4].appl  nodeId  ETV
vector 94  scenario.node[4].appl  acceleration  ETV
vector 95  scenario.node[4].appl  controllerAcceleration  ETV
vector 91  scenario.node[4].appl  speed  ETV
vector 92  scenario.node[4].appl  posx  ETV
vector 93  scenario.node[4].appl  posy  ETV
vector 110  scenario.node[5].appl  distance  ETV
vector 111  scenario.node[5].appl  relativeSpeed  ETV
vector 112  scenario.node[5].appl  nodeId  ETV
vector 116  scenario.node[5].appl  acceleration  ETV
vector 117  scenario.node[5].appl  controllerAcceleration  ETV
vector 113  scenario.node[5].appl  speed  ETV
vector 114  scenario.node[5].appl  posx  ETV
vector 115  scenario.node[5].appl  posy  ETV
vector 132  scenario.node[6].appl  distance  ETV
vector 133  scenario.node[6].appl  relativeSpeed  ETV
vector 134  scenario.node[6].appl  nodeId  ETV
vector 138  scenario.node[6].appl  acceleration  ETV
vector 139  scenario.node[6].appl  controllerAcceleration  ETV
vector 135  scenario.node[6].appl  speed  ETV
vector 136  scenario.node[6].appl  posx  ETV
vector 137  scenario.node[6].appl  posy  ETV
vector 154  scenario.node[7].appl  distance  ETV
vector 155  scenario.node[7].appl  relativeSpeed  ETV
vector 156  scenario.node[7].appl  nodeId  ETV
vector 160  scenario.node[7].appl  acceleration  ETV
vector 161  scenario.node[7].appl  controllerAcceleration  ETV
vector 157  scenario.node[7].appl  speed  ETV
vector 158  scenario.node[7].appl  posx  ETV
vector 159  scenario.node[7].appl  posy  ETV
vector 58  scenario.node[2].prot  frontDelay  ETV
vector 56  scenario.node[2].prot  frontDelayId  ETV
vector 102  scenario.node[4].prot  frontDelay  ETV
vector 100  scenario.node[4].prot  frontDelayId  ETV
vector 146  scenario.node[6].prot  frontDelay  ETV
vector 144  scenario.node[6].prot  frontDelayId  ETV
vector 168  scenario.node[7].prot  frontDelay  ETV
vector 166  scenario.node[7].prot  frontDelayId  ETV
vector 124  scenario.node[5].prot  frontDelay  ETV
vector 122  scenario.node[5].prot  frontDelayId  ETV
vector 35  scenario.node[1].prot  leaderDelay  ETV
vector 33  scenario.node[1].prot  leaderDelayId  ETV
vector 36  scenario.node[1].prot  frontDelay  ETV
vector 34  scenario.node[1].prot  frontDelayId  ETV
vector 57  scenario.node[2].prot  leaderDelay  ETV
vector 55  scenario.node[2].prot  leaderDelayId  ETV
vector 79  scenario.node[3].prot  leaderDelay  ETV
vector 77  scenario.node[3].prot  leaderDelayId  ETV
vector 101  scenario.node[4].prot  leaderDelay  ETV
vector 99  scenario.node[4].prot  leaderDelayId  ETV
vector 123  scenario.node[5].prot  leaderDelay  ETV
vector 121  scenario.node[5].prot  leaderDelayId  ETV
vector 145  scenario.node[6].prot  leaderDelay  ETV
vector 143  scenario.node[6].prot  leaderDelayId  ETV
vector 167  scenario.node[7].prot  leaderDelay  ETV
vector 165  scenario.node[7].prot  leaderDelayId  ETV
vector 80  scenario.node[3].prot  frontDelay  ETV
vector 78  scenario.node[3].prot  frontDelayId  ETV
vector 8  scenario.node[0].prot  nodeId  ETV
vector 9  scenario.node[0].prot  busyTime  ETV
vector 10  scenario.node[0].prot  collisions  ETV
vector 30  scenario.node[1].prot  nodeId  ETV
vector 31  scenario.node[1].prot  busyTime  ETV
vector 32  scenario.node[1].prot  collisions  ETV
vector 52  scenario.node[2].prot  nodeId  ETV
vector 53  scenario.node[2].prot  busyTime  ETV
vector 54  scenario.node[2].prot  collisions  ETV
vector 74  scenario.node[3].prot  nodeId  ETV
vector 75  scenario.node[3].prot  busyTime  ETV
vector 76  scenario.node[3].prot  collisions  ETV
vector 96  scenario.node[4].prot  nodeId  ETV
vector 97  scenario.node[4].prot  busyTime  ETV
vector 98  scenario.node[4].prot  collisions  ETV
vector 118  scenario.node[5].prot  nodeId  ETV
vector 119  scenario.node[5].prot  busyTime  ETV
vector 120  scenario.node[5].prot  collisions  ETV
vector 140  scenario.node[6].prot  nodeId  ETV
vector 141  scenario.node[6].prot  busyTime  ETV
vector 142  scenario.node[6].prot  collisions  ETV
vector 162  scenario.node[7].prot  nodeId  ETV
vector 163  scenario.node[7].prot  busyTime  ETV
vector 164  scenario.node[7].prot  collisions  ETV
7	11223 11622 232 274073 1.11 50.21 492 -1.5 1.5 -10.17802621536 817.15269361786
6	22845 15505 232 274073 1.11 50.21 492 -1.472274679513 1.4513434107963 -12.683189404307 551.8825418562
5	38350 10044 232 274073 1.11 50.21 492 36.55 36.55 17982.6 657264.03
4	48394 14922 232 274073 1.11 50.21 492 124.9942813872 810.87204866403 230958.80855985 127726812.19724
3	63316 14905 232 274073 1.11 50.21 492 12.599076992993 15.853603639796 6872.2205079822 96361.715129029
1	78221 8076 232 274073 1.11 50.21 492 0 0 0 0
0	86297 8568 232 274073 1.11 50.21 492 -1 -1 -492 492
2	94865 8076 232 274073 1.11 50.21 492 0 0 0 0
10	102941 708 5168 272882 2 50 49 0 0 0 0
9	103649 954 5168 272882 2 50 49 0.023297 0.02625 1.283297 0.033617750209
8	104603 659 5168 272882 2 50 49 0 0 0 0
51	105262 16209 234 274075 1.11 50.21 492 -1.5092135974097 1.5122039406897 4.4275744147857 461.23547404977
50	121471 16278 234 274075 1.11 50.21 492 -1.4841297326063 1.4672918318949 4.5383342455477 323.10946024879
49	137749 10536 234 274075 1.11 50.21 492 36.55 36.55 17982.6 657264.03
48	148285 15410 234 274075 1.11 50.21 492 98.994281387329 800.1941761543 219482.82701384 117955262.69527
47	163695 15404 234 274075 1.11 50.21 492 12.586431315838 15.851008825246 7026.0470927968 100675.57263911
45	179099 16883 234 274075 1.11 50.21 492 -0.48507837541627 0.012241039882397 -64.058488078612 25.234019445906
44	195982 15390 234 274075 1.11 50.21 492 2.6085790194979 9.0331337372165 3879.44462392 32470.516648765
46	211372 8568 234 274075 1.11 50.21 492 2 2 984 1968
58	219940 19746 832 274117 1.212435737176 50.21243753313 491 0.099998416066 0.100011705742 49.100000489767 4.9100001056731
57	239686 19701 1244 273972 1.297802344263 50.197805489064 490 0.099998416213 0.100011706056 49.000001838614 4.9000003754415
56	259387 13414 832 274117 1.212435737176 50.21243753313 491 2 2 982 1964
55	272801 13395 1244 273972 1.297802344263 50.197805489064 490 2 2 980 1960
54	286196 708 5170 272884 2 50 49 0 0 0 0
53	286904 1003 5170 272884 2 50 49 0.023296 0.02625 1.283296 0.033617703616
52	287907 708 5170 272884 2 50 49 2 2 98 196
73	288615 16156 235 274076 1.11 50.21 492 -1.4954488815774 1.4986508547754 7.0433315216151 449.96935170761
72	304771 16204 235 274076 1.11 50.21 492 -1.4697266269408 1.4522492500257 7.3149887025513 319.08348039362
71	320975 10536 235 274076 1.11 50.21 492 36.55 36.55 17982.6 657264.03
70	331511 15405 235 274076 1.11 50.21 492 85.994281387329 792.78612486073 213515.3699372 112948017.7078
69	346916 15396 235 274076 1.11 50.21 492 12.598086218602 15.836008806661 7082.0639955819 102356.84160067
67	362312 16781 235 274076 1.11 50.21 492 -0.43288460929549 0.021653877994089 -56.062286127537 19.931676902752
66	379093 15381 235 274076 1.11 50.21 492 3.4136312228317 9.0520779269415 4000.5774146995 33790.206139993
68	394474 8568 235 274076 1.11 50.21 492 3 3 1476 4428
80	403042 19706 1312 274041 1.307224387626 50.207227513784 490 0.099998418447 0.100011705386 49.000001819971 4.9000003717095
79	422748 19715 1250 273978 1.297802387626 50.197805513794 490 0.09999841612 0.100011706035 49.000001819981 4.9000003717149
78	442463 13397 1312 274041 1.307224387626 50.207227513784 490 3 3 1470 4410
77	455860 13395 1250 273978 1.297802387626 50.197805513794 490 3 3 1470 4410
76	469255 708 5171 272885 2 50 49 0 0 0 0
75	469963 1003 5171 272885 2 50 49 0.023297 0.02625 1.283297 0.033617750209
74	470966 708 5171 272885 2 50 49 3 3 147 441
95	471674 16158 236 274077 1.11 50.21 492 -1.5015734358673 1.5060862511444 10.079361900654 458.29490598433
94	487832 16190 236 274077 1.11 50.21 492 -1.4671620223636 1.4503898338162 10.432877111825 319.86810733483
93	504022 10536 236 274077 1.11 50.21 492 36.55 36.55 17982.6 657264.03
92	514558 15405 236 274077 1.11 50.21 492 72.994281387329 784.53619832246 207448.15948698 107949603.90253
91	529963 15413 236 274077 1.11 50.21 492 12.599574433264 15.884514259994 7129.6739580496 103817.68573764
89	545376 16778 236 274077 1.11 50.21 492 -0.37581393197174 0.015827597329503 -47.683112354776 15.144973828908
88	562154 15365 236 274077 1.11 50.21 492 4.2561755548443 9.0167039790226 4100.1626494682 34979.810152167
90	577519 8568 236 274077 1.11 50.21 492 4 4 1968 7872
102	586087 20242 902 274187 1.235039823903 50.235041585339 491 0.099998415869 0.100011705706 49.100000455249 4.9100000987696
101	606329 20197 1256 273984 1.297802430989 50.197805541333 490 0.099998416015 0.100011706022 49.000001804157 4.9000003685501
100	626526 13916 902 274187 1.235039823903 50.235041585339 491 4 4 1964 7856
99	640442 13387 1256 273984 1.297802430989 50.197805541333 490 4 4 1960 7840
98	653829 708 5172 272886 2 50 49 0 0 0 0
97	654537 1003 5172 272886 2 50 49 0.023297 0.02625 1.283297 0.033617750209
96	655540 708 5172 272886 2 50 49 4 4 196 784
117	656248 16622 237 274078 1.11 50.21 492 -1.5284774914501 1.5300606456549 13.393269726692 472.10429116399
116	672870 16693 237 274078 1.11 50.21 492 -1.4661745337744 1.4484846922654 13.656518312733 320.32565605368
115	689563 11028 237 274078 1.11 50.21 492 36.55 36.55 17982.6 657264.03
114	700591 15899 237 274078 1.11 50.21 492 59.994281387329 775.47974828284 201297.10562398 102987518.18231
113	716490 15896 237 274078 1.11 50.21 492 12.600666562329 16.112570489594 7169.222397681 105054.1362036
111	732386 17265 237 274078 1.11 50.21 492 -0.34244350143855 0.020930834484565 -39.652768402429 11.417948083416
110	749651 15873 237 274078 1.11 50.21 492 5.0629135219199 9.0458395697269 4183.8448317878 36080.179246536
112	765524 9060 237 274078 1.11 50.21 492 5 5 2460 12300
124	774584 20188 1178 273906 1.297389127446 50.19737939556 490 0.099998417469 0.10001170486 48.999988961927 4.8999977999729
123	794772 20207 1262 273990 1.297802474353 50.197805571564 490 0.099998415908 0.100011706019 49.000001791024 4.9000003659235
122	814979 13864 1178 273906 1.297389127446 50.19737939556 490 5 5 2450 12250
121	828843 13875 1262 273990 1.297802474353 50.197805571564 490 5 5 2450 12250
120	842718 757 5173 272887 2 50 49 0 0 0 0
119	843475 1052 5173 272887 2 50 49 0.023297 0.02625 1.283297 0.033617750209
118	844527 757 5173 272887 2 50 49 5 5 245 1225
139	845284 16644 238 274079 1.11 50.21 492 -1.4999727108308 1.5046152537571 16.365489383948 455.9503096991
138	861928 16686 238 274079 1.11 50.21 492 -1.4605505330708 1.4432664538838 16.788913413838 318.16531127941
137	878614 11028 238 274079 1.11 50.21 492 36.55 36.55 17982.6 657264.03
136	889642 15900 238 274079 1.11 50.21 492 46.994283294678 765.67909374744 195084.72912 98095531.182658
135	905542 15907 238 274079 1.11 50.21 492 12.606318018994 16.295259654768 7201.3254195838 106071.40929836
133	921449 17214 238 274079 1.11 50.21 492 -0.31391045066004 0.023302087120397 -32.239587085947 8.0275483139654
132	938663 15906 238 274079 1.11 50.21 492 5.8069133709514 9.0188538519862 4245.0185644165 36927.444734937
134	954569 9060 238 274079 1.11 50.21 492 6 6 2952 17712
146	963629 20223 970 274255 1.24871291063 50.248714648187 491 0.099998417981 0.100011704869 49.10000043137 4.9100000939918
145	983852 20192 1268 273996 1.297802517716 50.197805604276 490 0.099998415803 0.100011706015 49.000001780373 4.9000003637933
144	1004044 13895 970 274255 1.24871291063 50.248714648187 491 6 6 2946 17676
143	1017939 13881 1268 273996 1.297802517716 50.197805604276 490 6 6 2940 17640
142	1031820 757 5174 272888 2 50 49 0 0 0 0
141	1032577 1052 5174 272888 2 50 49 0.023297 0.02625 1.283297 0.033617750209
140	1033629 757 5174 272888 2 50 49 6 6 294 1764
161	1034386 16652 239 274080 1.11 50.21 492 -1.5093935068811 1.5126459143773 19.349196410932 463.75338131323
160	1051038 16701 239 274080 1.11 50.21 492 -1.4619692773802 1.4451435683178 19.669438027314 319.77323777572
159	1067739 11028 239 274080 1.11 50.21 492 36.55 36.55 17982.6 657264.03
158	1078767 15895 239 274080 1.11 50.21 492 33.994282817841 755.21818055535 188824.09864802 93295109.061964
157	1094662 15900 239 274080 1.11 50.21 492 12.604135163113 16.444151929874 7226.8169951284 106892.65324489
155	1110562 17251 239 274080 1.11 50.21 492 -0.28669343060949 0.024254044206115 -25.659464678749 5.4204861676818
154	1127813 15898 239 274080 1.11 50.21 492 6.46666924583 9.0179694770806 4293.1403034967 37636.578261848
156	1143711 9060 239 274080 1.11 50.21 492 7 7 3444 24108
168	1152771 20198 1040 273768 1.263893953993 50.163884267473 490 0.099998417885 0.100011704866 48.999989007293 4.8999978090457
167	1172969 20188 1274 274002 1.297802561079 50.197805639189 490 0.099998415707 0.100011706012 49.000001771923 4.9000003621033
166	1193157 13876 1040 273768 1.263893953993 50.163884267473 490 7 7 3430 24010
165	1207033 13870 1274 274002 1.297802561079 50.197805639189 490 7 7 3430 24010
164	1220903 757 5175 272889 2 50 49 0 0 0 0
163	1221660 1052 5175 272889 2 50 49 0.023297 0.02625 1.283297 0.033617750209
162	1222712 757 5175 272889 2 50 49 7 7 343 2401
22	1223469 15448 233 274289 1.11 50.26 493 0 11.202414000932 3663.6134537829 31688.683273716
23	1238917 16394 233 274289 1.11 50.26 493 -2.187191165532 1.2748586457614 -91.16409494238 244.27110772141
24	1255311 8586 233 274289 1.11 50.26 493 1 1 493 493
25	1263897 15439 233 274289 1.11 50.26 493 12.576941391325 15.862412181803 6976.1362563004 98994.546918334
26	1279336 15423 233 274289 1.11 50.26 493 111.99428138733 807.50457401232 226136.49551219 123589467.39908
27	1294759 10558 233 274289 1.11 50.26 493 36.55 36.55 18019.15 658599.9325
28	1305317 16331 233 274289 1.11 50.26 493 -1.4954736405162 1.4760592284102 2.3281699655577 325.06560791359
29	1321648 16298 233 274289 1.11 50.26 493 -1.555555192602 1.5570065793937 2.3826719664677 483.02986596362
30	1337946 708 5169 272883 2 50 49 1 1 49 49
31	1338654 1003 5169 272883 2 50 49 0.023297 0.02625 1.283297 0.033617750209
32	1339657 708 5169 272883 2 50 49 0 0 0 0
33	1340365 13391 1238 273966 1.297802300899 50.19780546702 490 1 1 490 490
34	1353756 13391 1238 273966 1.297802300899 50.19780546702 490 1 1 490 490
35	1367147 19716 1238 273966 1.297802300899 50.19780546702 490 0.099998416287 0.100011706096 49.000001859934 4.9000003797055
36	1386863 19716 1238 273966 1.297802300899 50.19780546702 490 0.099998416287 0.100011706096 49.000001859934 4.9000003797055
