file 1004812 1501601056                                         
version 2
run SinusoidalJammingDetail-373-20170801-17:23:57-51230
attr CACCSpacing 9
attr attackAcc -30
attr attackPos 7
attr attackSpeed 150
attr attackStart 31
attr attacker 1
attr beaconInterval 0.1
attr configname SinusoidalJammingDetail
attr controller 1
attr datetime 20170801-17:23:57
attr experiment SinusoidalJammingDetail
attr fakeAcc "(1 == 4)"
attr fakePos "(1 == 2)"
attr fakeSpeed "(1 == 3)"
attr inifile omnetpp_373.ini
attr iterationvars "$leaderSpeed=100, $controller=1, $CACCSpacing=9, $sController=\"CACC\", $attacker=1, $attackStart=31, $attackSpeed=150, $attackPos=7, $attackAcc=-30, $0=9, $1=0, $nCars=8, $platoonSize=8, $nLanes=1, $beaconInterval=0.1, $priority=2, $packetSize=200, $ploegH=0.5, $leaderHeadway=1.2, $fakeSpeed=(1 == 3), $fakeAcc=(1 == 4), $fakePos=(1 == 2)"
attr iterationvarsf leaderSpeed=100,controller=1,CACCSpacing=9,sController=CACC,attacker=1,attackStart=31,attackSpeed=150,attackPos=7,attackAcc=-30,9,0,nCars=8,platoonSize=8,nLanes=1,beaconInterval=0.1,priority=2,packetSize=200,ploegH=0.5,leaderHeadway=1.2,fakeSpeed=(1_==_3),fakeAcc=(1_==_4),fakePos=(1_==_2)-
attr leaderHeadway 1.2
attr leaderSpeed 100
attr measurement "$leaderSpeed=100, $controller=1, $CACCSpacing=9, $sController=\"CACC\", $attacker=1, $attackStart=31, $attackSpeed=150, $attackPos=7, $attackAcc=-30, $0=9, $1=0, $nCars=8, $platoonSize=8, $nLanes=1, $beaconInterval=0.1, $priority=2, $packetSize=200, $ploegH=0.5, $leaderHeadway=1.2, $fakeSpeed=(1 == 3), $fakeAcc=(1 == 4), $fakePos=(1 == 2)"
attr nCars 8
attr nLanes 1
attr network scenario
attr packetSize 200
attr platoonSize 8
attr ploegH 0.5
attr priority 2
attr processid 51230
attr repetition 3
attr replication #3
attr resultdir results
attr runnumber 373
attr sController "\"CACC\""
attr seedset 3
param **.coreDebug false
param **.debug false
param **.headway 0.1s
param **.numberOfCars 8
param **.numberOfCarsPerPlatoon 8
param **.numberOfLanes 1
param **.numericController 1
param **.traffic.nCars 8
param **.traffic.nLanes 1
param **.traffic.platoonInsertDistance 9m
param **.traffic.platoonInsertHeadway 0s
param **.traffic.platoonInsertSpeed 100kmph
param **.traffic.platoonInsertTime "1 s"
param **.traffic.platoonLeaderHeadway 1.2s
param **.traffic.platoonSize 8
param **.traffic.platooningVType "\"vtypeauto\""
param **.traffic_type "\"PlatoonsTrafficManager\""
param *.**.nic.mac1609_4.bitrate 6Mbps
param *.**.nic.mac1609_4.txPower 100mW
param *.**.nic.mac1609_4.useServiceChannel false
param *.**.nic.phy80211p.analogueModels "xmldoc(\"config.xml\")"
param *.**.nic.phy80211p.decider "xmldoc(\"config.xml\")"
param *.**.nic.phy80211p.maxTXPower 100mW
param *.**.nic.phy80211p.sensitivity -94dBm
param *.**.nic.phy80211p.thermalNoise -95dBm
param *.**.nic.phy80211p.usePropagationDelay true
param *.**.nic.phy80211p.useThermalNoise true
param *.annotations.draw false
param *.connectionManager.alpha 2.0
param *.connectionManager.carrierFrequency "5.890e9 Hz"
param *.connectionManager.pMax 100mW
param *.connectionManager.sat -94dBm
param *.connectionManager.sendDirect true
param *.manager.autoShutdown true
param *.manager.commandLine "\"sumo --remote-port $port --seed $seed --configuration-file $configFile\""
param *.manager.configFile "\"./sumocfg/freeway.sumo.cfg\""
param *.manager.host "\"localhost\""
param *.manager.margin 25
param *.manager.moduleDisplayString "\"\""
param *.manager.moduleName "\"node\""
param *.manager.moduleType "\"Car\""
param *.manager.updateInterval 0.01s
param *.node[*].appl.attackStart 31s
param *.node[*].appl.attackerType 1
param *.node[*].appl.simulationDuration "60 s"
param *.node[*].appl_type "\"SimplePlatooningApp\""
param *.node[*].helper.nCars 8
param *.node[*].helper.nLanes 1
param *.node[*].helper.platoonSize 8
param *.node[*].helper_type "\"PositionHelper\""
param *.node[*].mobility.x 0
param *.node[*].mobility.y 0
param *.node[*].mobility.z 1.895
param *.node[*].prot.attackStart 31s
param *.node[*].prot.attackerType 1
param *.node[*].prot.attackingNode 3
param *.node[*].prot.beaconingInterval 0.1s
param *.node[*].prot.fakeAcc "(1 == 4)"
param *.node[*].prot.fakePos "(1 == 2)"
param *.node[*].prot.fakeSpeed "(1 == 3)"
param *.node[*].prot.maliciousAcc "-30 mpss"
param *.node[*].prot.maliciousSpeed 150kmph
param *.node[*].prot.packetSize 200
param *.node[*].prot.priority 2
param *.node[*].prot.shiftX "7 m"
param *.node[*].prot.useControllerAcceleration true
param *.node[*].protocol_type "\"SimplePlatooningBeaconing\""
param *.node[*].scenario.accHeadway 0.1s
param *.node[*].scenario.caccC1 0.5
param *.node[*].scenario.caccOmegaN "0.2 Hz"
param *.node[*].scenario.caccSpacing 9m
param *.node[*].scenario.caccXi 1
param *.node[*].scenario.controller "\"CACC\""
param *.node[*].scenario.engineTau "0.5 s"
param *.node[*].scenario.leaderHeadway 1.2s
param *.node[*].scenario.leaderOscillationFrequency "0.2 Hz"
param *.node[*].scenario.leaderSpeed 100kmph
param *.node[*].scenario.oscillationAmplitude "10 kmph"
param *.node[*].scenario.ploegH 0.5s
param *.node[*].scenario.ploegKd 0.7
param *.node[*].scenario.ploegKp 0.2
param *.node[*].scenario.startOscillating "5 s"
param *.node[*].scenario.useRealisticEngine false
param *.node[*].scenario_type "\"SinusoidalScenario\""
param *.node[*].unicast.packetLossRate 0
param *.obstacles.debug false
param *.playgroundSizeX 65000m
param *.playgroundSizeY 25000m
param *.playgroundSizeZ 50m
param *.world.use2D false
param *.world.useTorus false

vector 0  scenario.node[0].appl  distance  ETV
vector 1  scenario.node[0].appl  relativeSpeed  ETV
vector 2  scenario.node[0].appl  nodeId  ETV
vector 6  scenario.node[0].appl  acceleration  ETV
vector 7  scenario.node[0].appl  controllerAcceleration  ETV
vector 3  scenario.node[0].appl  speed  ETV
vector 4  scenario.node[0].appl  posx  ETV
vector 5  scenario.node[0].appl  posy  ETV
vector 22  scenario.node[1].appl  distance  ETV
vector 23  scenario.node[1].appl  relativeSpeed  ETV
vector 24  scenario.node[1].appl  nodeId  ETV
vector 28  scenario.node[1].appl  acceleration  ETV
vector 29  scenario.node[1].appl  controllerAcceleration  ETV
vector 25  scenario.node[1].appl  speed  ETV
vector 26  scenario.node[1].appl  posx  ETV
vector 27  scenario.node[1].appl  posy  ETV
vector 44  scenario.node[2].appl  distance  ETV
vector 45  scenario.node[2].appl  relativeSpeed  ETV
vector 46  scenario.node[2].appl  nodeId  ETV
vector 50  scenario.node[2].appl  acceleration  ETV
vector 51  scenario.node[2].appl  controllerAcceleration  ETV
vector 47  scenario.node[2].appl  speed  ETV
vector 48  scenario.node[2].appl  posx  ETV
vector 49  scenario.node[2].appl  posy  ETV
vector 66  scenario.node[3].appl  distance  ETV
vector 67  scenario.node[3].appl  relativeSpeed  ETV
vector 68  scenario.node[3].appl  nodeId  ETV
vector 72  scenario.node[3].appl  acceleration  ETV
vector 73  scenario.node[3].appl  controllerAcceleration  ETV
vector 69  scenario.node[3].appl  speed  ETV
vector 70  scenario.node[3].appl  posx  ETV
vector 71  scenario.node[3].appl  posy  ETV
vector 88  scenario.node[4].appl  distance  ETV
vector 89  scenario.node[4].appl  relativeSpeed  ETV
vector 90  scenario.node[4].appl  nodeId  ETV
vector 94  scenario.node[4].appl  acceleration  ETV
vector 95  scenario.node[4].appl  controllerAcceleration  ETV
vector 91  scenario.node[4].appl  speed  ETV
vector 92  scenario.node[4].appl  posx  ETV
vector 93  scenario.node[4].appl  posy  ETV
vector 110  scenario.node[5].appl  distance  ETV
vector 111  scenario.node[5].appl  relativeSpeed  ETV
vector 112  scenario.node[5].appl  nodeId  ETV
vector 116  scenario.node[5].appl  acceleration  ETV
vector 117  scenario.node[5].appl  controllerAcceleration  ETV
vector 113  scenario.node[5].appl  speed  ETV
vector 114  scenario.node[5].appl  posx  ETV
vector 115  scenario.node[5].appl  posy  ETV
vector 132  scenario.node[6].appl  distance  ETV
vector 133  scenario.node[6].appl  relativeSpeed  ETV
vector 134  scenario.node[6].appl  nodeId  ETV
vector 138  scenario.node[6].appl  acceleration  ETV
vector 139  scenario.node[6].appl  controllerAcceleration  ETV
vector 135  scenario.node[6].appl  speed  ETV
vector 136  scenario.node[6].appl  posx  ETV
vector 137  scenario.node[6].appl  posy  ETV
vector 154  scenario.node[7].appl  distance  ETV
vector 155  scenario.node[7].appl  relativeSpeed  ETV
vector 156  scenario.node[7].appl  nodeId  ETV
vector 160  scenario.node[7].appl  acceleration  ETV
vector 161  scenario.node[7].appl  controllerAcceleration  ETV
vector 157  scenario.node[7].appl  speed  ETV
vector 158  scenario.node[7].appl  posx  ETV
vector 159  scenario.node[7].appl  posy  ETV
vector 35  scenario.node[1].prot  leaderDelay  ETV
vector 33  scenario.node[1].prot  leaderDelayId  ETV
vector 36  scenario.node[1].prot  frontDelay  ETV
vector 34  scenario.node[1].prot  frontDelayId  ETV
vector 57  scenario.node[2].prot  leaderDelay  ETV
vector 55  scenario.node[2].prot  leaderDelayId  ETV
vector 79  scenario.node[3].prot  leaderDelay  ETV
vector 77  scenario.node[3].prot  leaderDelayId  ETV
vector 101  scenario.node[4].prot  leaderDelay  ETV
vector 99  scenario.node[4].prot  leaderDelayId  ETV
vector 123  scenario.node[5].prot  leaderDelay  ETV
vector 121  scenario.node[5].prot  leaderDelayId  ETV
vector 145  scenario.node[6].prot  leaderDelay  ETV
vector 143  scenario.node[6].prot  leaderDelayId  ETV
vector 167  scenario.node[7].prot  leaderDelay  ETV
vector 165  scenario.node[7].prot  leaderDelayId  ETV
vector 168  scenario.node[7].prot  frontDelay  ETV
vector 166  scenario.node[7].prot  frontDelayId  ETV
vector 58  scenario.node[2].prot  frontDelay  ETV
vector 56  scenario.node[2].prot  frontDelayId  ETV
vector 124  scenario.node[5].prot  frontDelay  ETV
vector 122  scenario.node[5].prot  frontDelayId  ETV
vector 80  scenario.node[3].prot  frontDelay  ETV
vector 78  scenario.node[3].prot  frontDelayId  ETV
vector 146  scenario.node[6].prot  frontDelay  ETV
vector 144  scenario.node[6].prot  frontDelayId  ETV
vector 102  scenario.node[4].prot  frontDelay  ETV
vector 100  scenario.node[4].prot  frontDelayId  ETV
vector 8  scenario.node[0].prot  nodeId  ETV
vector 9  scenario.node[0].prot  busyTime  ETV
vector 10  scenario.node[0].prot  collisions  ETV
vector 30  scenario.node[1].prot  nodeId  ETV
vector 31  scenario.node[1].prot  busyTime  ETV
vector 32  scenario.node[1].prot  collisions  ETV
vector 52  scenario.node[2].prot  nodeId  ETV
vector 53  scenario.node[2].prot  busyTime  ETV
vector 54  scenario.node[2].prot  collisions  ETV
vector 74  scenario.node[3].prot  nodeId  ETV
vector 75  scenario.node[3].prot  busyTime  ETV
vector 76  scenario.node[3].prot  collisions  ETV
vector 96  scenario.node[4].prot  nodeId  ETV
vector 97  scenario.node[4].prot  busyTime  ETV
vector 98  scenario.node[4].prot  collisions  ETV
vector 118  scenario.node[5].prot  nodeId  ETV
vector 119  scenario.node[5].prot  busyTime  ETV
vector 120  scenario.node[5].prot  collisions  ETV
vector 140  scenario.node[6].prot  nodeId  ETV
vector 141  scenario.node[6].prot  busyTime  ETV
vector 142  scenario.node[6].prot  collisions  ETV
vector 162  scenario.node[7].prot  nodeId  ETV
vector 163  scenario.node[7].prot  busyTime  ETV
vector 164  scenario.node[7].prot  collisions  ETV
7	11232 8365 232 196538 1.11 36.31 353 -1.5 1.5 6.3220233315939 568.60883090751
6	19597 11092 232 196538 1.11 36.31 353 -1.4722746794938 1.451340770512 -1.3401823746843 379.06807535879
5	30689 7125 232 196538 1.11 36.31 353 36.55 36.55 12902.15 471573.5825
4	37814 10611 232 196538 1.11 36.31 353 133.1237327573 1113.9361032032 220710.82771512 166492226.12884
3	48425 10619 232 196538 1.11 36.31 353 26.487975689908 29.742492528104 9835.844511319 274326.02715399
1	59044 5713 232 196538 1.11 36.31 353 0 0 0 0
0	64757 6066 232 196538 1.11 36.31 353 -1 -1 -353 353
2	70823 5713 232 196538 1.11 36.31 353 0 0 0 0
10	76536 498 5056 194678 2 36 35 0 0 0 0
9	77034 911 5056 194678 2 36 35 0.022764113157 0.026259435904 0.91526274496 0.023946259284899
8	77945 463 5056 194678 2 36 35 0 0 0 0
51	78408 11384 234 196540 1.11 36.31 353 -1.5293286672973 1.5293868179431 33.970360410321 509.11219020816
50	89792 11424 234 196540 1.11 36.31 353 -1.4784118257388 1.4534828074048 33.081197129529 349.30989037635
49	101216 7478 234 196540 1.11 36.31 353 36.55 36.55 12902.15 471573.5825
48	108694 10963 234 196540 1.11 36.31 353 107.12373275757 1098.3350524804 211672.81510991 155558526.77362
47	119657 10972 234 196540 1.11 36.31 353 26.486433757943 31.081451675473 9941.0479556505 280408.7818859
45	130629 12202 234 196540 1.11 36.31 353 -0.71504926181901 0.011086041899578 -14.549856600773 6.813956521091
44	142831 10948 234 196540 1.11 36.31 353 7.6103761218499 9.0363353898442 3158.9332467317 28284.022587719
46	153779 6066 234 196540 1.11 36.31 353 2 2 706 1412
58	159845 14027 1046 196239 1.299189734533 36.299195118114 351 0.099999028757 0.100012130615 35.100004511028 3.510000905983
57	173872 14025 842 196035 1.269558214174 36.269563617808 351 0.099999025323 0.100012130773 35.100004531081 3.5100009099943
56	187897 9504 1046 196239 1.299189734533 36.299195118114 351 2 2 702 1404
55	197401 9510 842 196035 1.269558214174 36.269563617808 351 2 2 702 1404
54	206911 498 5058 194680 2 36 35 0 0 0 0
53	207409 948 5058 194680 2 36 35 0.022764199884 0.026259421862 0.91526280092 0.023946261618042
52	208357 498 5058 194680 2 36 35 2 2 70 140
73	208855 11345 235 196541 1.11 36.31 353 -1.4888807667882 1.4893729233648 38.503683443489 481.57727459241
72	220200 11417 235 196541 1.11 36.31 353 -1.4638941814429 1.4373566323584 37.634753680209 348.0759550084
71	231617 7478 235 196541 1.11 36.31 353 36.55 36.55 12902.15 471573.5825
70	239095 10971 235 196541 1.11 36.31 353 94.123732757568 1086.071806138 207091.25149674 150132775.68555
69	250066 10969 235 196541 1.11 36.31 353 26.501344980557 31.531306505039 9948.5741824089 280870.20282913
67	261035 11985 235 196541 1.11 36.31 353 -0.45087187031622 0.033958346684219 -7.8570387297129 2.4217350851567
66	273020 10941 235 196541 1.11 36.31 353 8.272243438945 9.0696741580254 3169.7141377003 28465.847130943
68	283961 6066 235 196541 1.11 36.31 353 3 3 1059 3177
80	290027 14031 1180 196374 1.30021095135 36.300203324928 351 0.099999023565 0.100012130384 35.099991501025 3.5099983038386
79	304058 14027 848 196041 1.269558257537 36.269563658789 351 0.099999025178 0.100012130772 35.100004528699 3.5100009095178
78	318085 9503 1180 196374 1.30021095135 36.300203324928 351 3 3 1053 3159
77	327588 9506 848 196041 1.269558257537 36.269563658789 351 3 3 1053 3159
76	337094 498 5059 194681 2 36 35 0 0 0 0
75	337592 947 5059 194681 2 36 35 0.022763156521 0.026259422967 0.915261759557 0.023946214221495
74	338539 498 5059 194681 2 36 35 3 3 105 315
95	339037 11359 236 196542 1.11 36.31 353 -1.4835633703398 1.4833693252189 41.679667288758 476.9722409428
94	350396 11394 236 196542 1.11 36.31 353 -1.4536758623862 1.4275171502494 40.36994745999 346.79261494989
93	361790 7478 236 196542 1.11 36.31 353 36.55 36.55 12902.15 471573.5825
92	369268 10973 236 196542 1.11 36.31 353 81.123736572266 1073.4850398734 202505.74122163 144817380.21568
91	380241 10967 236 196542 1.11 36.31 353 26.512604910084 31.800402459826 9952.8015187965 281130.54606009
89	391208 12150 236 196542 1.11 36.31 353 -0.27158743766149 0.013354928326361 -4.603683924377 0.7766895233799
88	403358 10960 236 196542 1.11 36.31 353 8.5921481837397 9.0337943708969 3173.5948218365 28532.896664193
90	414318 6066 236 196542 1.11 36.31 353 4 4 1412 5648
102	420384 14395 1312 196506 1.306029168167 36.306047536052 351 0.099908125864 0.100090128225 35.099952495332 3.5099911018741
101	434779 14382 854 196047 1.2695583009 36.269563700818 351 0.09999902509 0.100012130774 35.100004527365 3.510000909251
100	449161 9864 1312 196506 1.306029168167 36.306047536052 351 4 4 1404 5616
99	459025 9501 854 196047 1.2695583009 36.269563700818 351 4 4 1404 5616
98	468526 498 5060 194682 2 36 35 0 0 0 0
97	469024 946 5060 194682 2 36 35 0.022764113157 0.026259423595 0.915262717301 0.023946257832698
96	469970 498 5060 194682 2 36 35 4 4 140 560
117	470468 11730 237 196543 1.11 36.31 353 -1.5014801019099 1.5049213468057 44.794721677461 498.92190721274
116	482198 11771 237 196543 1.11 36.31 353 -1.4472993148598 1.4221569108056 41.991908022396 345.99960197864
115	493969 7831 237 196543 1.11 36.31 353 36.55 36.55 12902.15 471573.5825
114	501800 11320 237 196543 1.11 36.31 353 68.123736572266 1060.7262047792 197918.39608341 139617020.37622
113	513120 11334 237 196543 1.11 36.31 353 26.518722105585 31.958399674084 9955.2689424731 281282.55556851
111	524454 12387 237 196543 1.11 36.31 353 -0.16154431333064 0.019160281939797 -2.8711231512025 0.30830474987097
110	536841 11305 237 196543 1.11 36.31 353 8.7619950385051 9.0187623362214 3175.3944866957 28564.519844183
112	548146 6419 237 196543 1.11 36.31 353 5 5 1765 8825
124	554565 14382 1112 196305 1.299602864623 36.299595243622 351 0.099999023895 0.100012130325 35.100004506446 3.5100009050683
123	568947 14377 860 196053 1.269558344264 36.269563743404 351 0.09999902504 0.100012130778 35.100004526587 3.5100009090955
122	583324 9857 1112 196305 1.299602864623 36.299595243622 351 5 5 1755 8775
121	593181 9849 860 196053 1.269558344264 36.269563743404 351 5 5 1755 8775
120	603030 533 5061 194683 2 36 35 0 0 0 0
119	603563 981 5061 194683 2 36 35 0.022763069794 0.026259423949 0.915261674584 0.023946210365239
118	604544 533 5061 194683 2 36 35 5 5 175 875
139	605077 11703 238 196544 1.11 36.31 353 -1.4833385366831 1.4846827108942 44.780990580638 483.82478799535
138	616780 11762 238 196544 1.11 36.31 353 -1.4512379779678 1.4280810599178 43.009418262392 351.44554362013
137	628542 7831 238 196544 1.11 36.31 353 36.55 36.55 12902.15 471573.5825
136	636373 11331 238 196544 1.11 36.31 353 55.123734664917 1047.9468428064 193331.80033041 134536566.08724
135	647704 11316 238 196544 1.11 36.31 353 26.508473325912 32.059722688853 9957.5112214645 281423.4056474
133	659020 12318 238 196544 1.11 36.31 353 -0.10557667569236 0.046328190982276 -2.6621980716255 0.41126498439955
132	671338 11329 238 196544 1.11 36.31 353 8.7813884330681 9.0375577996335 3174.6405985781 28551.11532039
134	682667 6419 238 196544 1.11 36.31 353 6 6 2118 12708
146	689086 14380 1249 196443 1.30561608144 36.305608452131 351 0.099999023392 0.100012130178 35.099991498138 3.5099983032605
145	703466 14369 866 196059 1.269558387627 36.269563786048 351 0.099999025008 0.100012130779 35.100004525868 3.5100009089516
144	717835 9863 1249 196443 1.30561608144 36.305608452131 351 6 6 2106 12636
143	727698 9842 866 196059 1.269558387627 36.269563786048 351 6 6 2106 12636
142	737540 533 5062 194684 2 36 35 0 0 0 0
141	738073 982 5062 194684 2 36 35 0.022764026431 0.026259424196 0.915262631855 0.023946253951431
140	739055 533 5062 194684 2 36 35 6 6 210 1260
161	739588 11725 239 196545 1.11 36.31 353 -1.5021746529638 1.5049027513616 46.811655668269 505.37002660582
160	751313 11792 239 196545 1.11 36.31 353 -1.4497273623213 1.4254867389649 43.583663109339 350.60353011587
159	763105 7831 239 196545 1.11 36.31 353 36.55 36.55 12902.15 471573.5825
158	770936 11311 239 196545 1.11 36.31 353 42.123735618591 1034.988065006 188741.42538049 129568240.63079
157	782247 11325 239 196545 1.11 36.31 353 26.512999287289 32.114438578785 9957.9427368088 281450.73235846
155	793572 12602 239 196545 1.11 36.31 353 -0.059366006998331 0.0045408013602781 -0.8616095269111 0.031797160417549
154	806174 11311 239 196545 1.11 36.31 353 8.9598721181778 9.0189440531096 3178.3835802273 28617.93864393
156	817485 6419 239 196545 1.11 36.31 353 7 7 2471 17297
168	823904 14382 980 196173 1.292107517716 36.292099915745 351 0.099999024954 0.100012130167 35.099991525476 3.5099983087283
167	838286 14377 872 196065 1.26955843099 36.269563829283 351 0.09999902499 0.100012130779 35.10000452574 3.510000908926
166	852663 9857 980 196173 1.292107517716 36.292099915745 351 7 7 2457 17199
165	862520 9853 872 196065 1.26955843099 36.269563829283 351 7 7 2457 17199
164	872373 533 5063 194685 2 36 35 0 0 0 0
163	872906 983 5063 194685 2 36 35 0.022763983067 0.026259424302 0.915262588575 0.023946251981566
162	873889 533 5063 194685 2 36 35 7 7 245 1715
22	874422 11000 233 196548 1.11 36.32 354 0 9.1975225468966 3057.1834273653 27183.330131744
23	885422 11928 233 196548 1.11 36.32 354 -3.8509315556205 0.21231136384956 -93.665280296113 296.57358487685
24	897350 6084 233 196548 1.11 36.32 354 1 1 354 354
25	903434 10997 233 196548 1.11 36.32 354 26.480495436544 30.386035329443 9957.1214289355 280463.41278413
26	914431 10992 233 196548 1.11 36.32 354 120.12373275757 1110.2347520652 217353.69728184 162312891.21041
27	925423 7500 233 196548 1.11 36.32 354 36.55 36.55 12938.7 472909.485
28	932923 11472 233 196548 1.11 36.32 354 -1.4872877099247 1.4631892517972 25.770014363218 345.21684339891
29	944395 11426 233 196548 1.11 36.32 354 -1.5233934266307 1.5241492081013 25.457083545707 500.26813095623
30	955821 498 5057 194679 2 36 35 1 1 35 35
31	956319 945 5057 194679 2 36 35 0.022764156521 0.02625942374 0.915262761504 0.023946259851032
32	957264 498 5057 194679 2 36 35 0 0 0 0
33	957762 9497 836 196029 1.26955817081 36.269563579009 351 1 1 351 351
34	967259 9497 836 196029 1.26955817081 36.269563579009 351 1 1 351 351
35	976756 14028 836 196029 1.26955817081 36.269563579009 351 0.099999025557 0.100012130773 35.100004535646 3.5100009109072
36	990784 14028 836 196029 1.26955817081 36.269563579009 351 0.099999025557 0.100012130773 35.100004535646 3.5100009109072
