file 1688360 1501600371                                         
version 2
run SinusoidalJammingDetail-328-20170801-17:12:20-13943
attr CACCSpacing 5
attr attackAcc -30
attr attackPos 7
attr attackSpeed 150
attr attackStart 32.5
attr attacker 1
attr beaconInterval 0.1
attr configname SinusoidalJammingDetail
attr controller 1
attr datetime 20170801-17:12:20
attr experiment SinusoidalJammingDetail
attr fakeAcc "(1 == 4)"
attr fakePos "(1 == 2)"
attr fakeSpeed "(1 == 3)"
attr inifile omnetpp_328.ini
attr iterationvars "$leaderSpeed=100, $controller=1, $CACCSpacing=5, $sController=\"CACC\", $attacker=1, $attackStart=32.5, $attackSpeed=150, $attackPos=7, $attackAcc=-30, $0=5, $1=0, $nCars=8, $platoonSize=8, $nLanes=1, $beaconInterval=0.1, $priority=2, $packetSize=200, $ploegH=0.5, $leaderHeadway=1.2, $fakeSpeed=(1 == 3), $fakeAcc=(1 == 4), $fakePos=(1 == 2)"
attr iterationvarsf leaderSpeed=100,controller=1,CACCSpacing=5,sController=CACC,attacker=1,attackStart=32.5,attackSpeed=150,attackPos=7,attackAcc=-30,5,0,nCars=8,platoonSize=8,nLanes=1,beaconInterval=0.1,priority=2,packetSize=200,ploegH=0.5,leaderHeadway=1.2,fakeSpeed=(1_==_3),fakeAcc=(1_==_4),fakePos=(1_==_2)-
attr leaderHeadway 1.2
attr leaderSpeed 100
attr measurement "$leaderSpeed=100, $controller=1, $CACCSpacing=5, $sController=\"CACC\", $attacker=1, $attackStart=32.5, $attackSpeed=150, $attackPos=7, $attackAcc=-30, $0=5, $1=0, $nCars=8, $platoonSize=8, $nLanes=1, $beaconInterval=0.1, $priority=2, $packetSize=200, $ploegH=0.5, $leaderHeadway=1.2, $fakeSpeed=(1 == 3), $fakeAcc=(1 == 4), $fakePos=(1 == 2)"
attr nCars 8
attr nLanes 1
attr network scenario
attr packetSize 200
attr platoonSize 8
attr ploegH 0.5
attr priority 2
attr processid 13943
attr repetition 3
attr replication #3
attr resultdir results
attr runnumber 328
attr sController "\"CACC\""
attr seedset 3
param **.coreDebug false
param **.debug false
param **.headway 0.1s
param **.numberOfCars 8
param **.numberOfCarsPerPlatoon 8
param **.numberOfLanes 1
param **.numericController 1
param **.traffic.nCars 8
param **.traffic.nLanes 1
param **.traffic.platoonInsertDistance 5m
param **.traffic.platoonInsertHeadway 0s
param **.traffic.platoonInsertSpeed 100kmph
param **.traffic.platoonInsertTime "1 s"
param **.traffic.platoonLeaderHeadway 1.2s
param **.traffic.platoonSize 8
param **.traffic.platooningVType "\"vtypeauto\""
param **.traffic_type "\"PlatoonsTrafficManager\""
param *.**.nic.mac1609_4.bitrate 6Mbps
param *.**.nic.mac1609_4.txPower 100mW
param *.**.nic.mac1609_4.useServiceChannel false
param *.**.nic.phy80211p.analogueModels "xmldoc(\"config.xml\")"
param *.**.nic.phy80211p.decider "xmldoc(\"config.xml\")"
param *.**.nic.phy80211p.maxTXPower 100mW
param *.**.nic.phy80211p.sensitivity -94dBm
param *.**.nic.phy80211p.thermalNoise -95dBm
param *.**.nic.phy80211p.usePropagationDelay true
param *.**.nic.phy80211p.useThermalNoise true
param *.annotations.draw false
param *.connectionManager.alpha 2.0
param *.connectionManager.carrierFrequency "5.890e9 Hz"
param *.connectionManager.pMax 100mW
param *.connectionManager.sat -94dBm
param *.connectionManager.sendDirect true
param *.manager.autoShutdown true
param *.manager.commandLine "\"sumo --remote-port $port --seed $seed --configuration-file $configFile\""
param *.manager.configFile "\"./sumocfg/freeway.sumo.cfg\""
param *.manager.host "\"localhost\""
param *.manager.margin 25
param *.manager.moduleDisplayString "\"\""
param *.manager.moduleName "\"node\""
param *.manager.moduleType "\"Car\""
param *.manager.updateInterval 0.01s
param *.node[*].appl.attackStart 32.5s
param *.node[*].appl.attackerType 1
param *.node[*].appl.simulationDuration "60 s"
param *.node[*].appl_type "\"SimplePlatooningApp\""
param *.node[*].helper.nCars 8
param *.node[*].helper.nLanes 1
param *.node[*].helper.platoonSize 8
param *.node[*].helper_type "\"PositionHelper\""
param *.node[*].mobility.x 0
param *.node[*].mobility.y 0
param *.node[*].mobility.z 1.895
param *.node[*].prot.attackStart 32.5s
param *.node[*].prot.attackerType 1
param *.node[*].prot.attackingNode 3
param *.node[*].prot.beaconingInterval 0.1s
param *.node[*].prot.fakeAcc "(1 == 4)"
param *.node[*].prot.fakePos "(1 == 2)"
param *.node[*].prot.fakeSpeed "(1 == 3)"
param *.node[*].prot.maliciousAcc "-30 mpss"
param *.node[*].prot.maliciousSpeed 150kmph
param *.node[*].prot.packetSize 200
param *.node[*].prot.priority 2
param *.node[*].prot.shiftX "7 m"
param *.node[*].prot.useControllerAcceleration true
param *.node[*].protocol_type "\"SimplePlatooningBeaconing\""
param *.node[*].scenario.accHeadway 0.1s
param *.node[*].scenario.caccC1 0.5
param *.node[*].scenario.caccOmegaN "0.2 Hz"
param *.node[*].scenario.caccSpacing 5m
param *.node[*].scenario.caccXi 1
param *.node[*].scenario.controller "\"CACC\""
param *.node[*].scenario.engineTau "0.5 s"
param *.node[*].scenario.leaderHeadway 1.2s
param *.node[*].scenario.leaderOscillationFrequency "0.2 Hz"
param *.node[*].scenario.leaderSpeed 100kmph
param *.node[*].scenario.oscillationAmplitude "10 kmph"
param *.node[*].scenario.ploegH 0.5s
param *.node[*].scenario.ploegKd 0.7
param *.node[*].scenario.ploegKp 0.2
param *.node[*].scenario.startOscillating "5 s"
param *.node[*].scenario.useRealisticEngine false
param *.node[*].scenario_type "\"SinusoidalScenario\""
param *.node[*].unicast.packetLossRate 0
param *.obstacles.debug false
param *.playgroundSizeX 65000m
param *.playgroundSizeY 25000m
param *.playgroundSizeZ 50m
param *.world.use2D false
param *.world.useTorus false

vector 0  scenario.node[0].appl  distance  ETV
vector 1  scenario.node[0].appl  relativeSpeed  ETV
vector 2  scenario.node[0].appl  nodeId  ETV
vector 6  scenario.node[0].appl  acceleration  ETV
vector 7  scenario.node[0].appl  controllerAcceleration  ETV
vector 3  scenario.node[0].appl  speed  ETV
vector 4  scenario.node[0].appl  posx  ETV
vector 5  scenario.node[0].appl  posy  ETV
vector 22  scenario.node[1].appl  distance  ETV
vector 23  scenario.node[1].appl  relativeSpeed  ETV
vector 24  scenario.node[1].appl  nodeId  ETV
vector 28  scenario.node[1].appl  acceleration  ETV
vector 29  scenario.node[1].appl  controllerAcceleration  ETV
vector 25  scenario.node[1].appl  speed  ETV
vector 26  scenario.node[1].appl  posx  ETV
vector 27  scenario.node[1].appl  posy  ETV
vector 44  scenario.node[2].appl  distance  ETV
vector 45  scenario.node[2].appl  relativeSpeed  ETV
vector 46  scenario.node[2].appl  nodeId  ETV
vector 50  scenario.node[2].appl  acceleration  ETV
vector 51  scenario.node[2].appl  controllerAcceleration  ETV
vector 47  scenario.node[2].appl  speed  ETV
vector 48  scenario.node[2].appl  posx  ETV
vector 49  scenario.node[2].appl  posy  ETV
vector 66  scenario.node[3].appl  distance  ETV
vector 67  scenario.node[3].appl  relativeSpeed  ETV
vector 68  scenario.node[3].appl  nodeId  ETV
vector 72  scenario.node[3].appl  acceleration  ETV
vector 73  scenario.node[3].appl  controllerAcceleration  ETV
vector 69  scenario.node[3].appl  speed  ETV
vector 70  scenario.node[3].appl  posx  ETV
vector 71  scenario.node[3].appl  posy  ETV
vector 88  scenario.node[4].appl  distance  ETV
vector 89  scenario.node[4].appl  relativeSpeed  ETV
vector 90  scenario.node[4].appl  nodeId  ETV
vector 94  scenario.node[4].appl  acceleration  ETV
vector 95  scenario.node[4].appl  controllerAcceleration  ETV
vector 91  scenario.node[4].appl  speed  ETV
vector 92  scenario.node[4].appl  posx  ETV
vector 93  scenario.node[4].appl  posy  ETV
vector 110  scenario.node[5].appl  distance  ETV
vector 111  scenario.node[5].appl  relativeSpeed  ETV
vector 112  scenario.node[5].appl  nodeId  ETV
vector 116  scenario.node[5].appl  acceleration  ETV
vector 117  scenario.node[5].appl  controllerAcceleration  ETV
vector 113  scenario.node[5].appl  speed  ETV
vector 114  scenario.node[5].appl  posx  ETV
vector 115  scenario.node[5].appl  posy  ETV
vector 132  scenario.node[6].appl  distance  ETV
vector 133  scenario.node[6].appl  relativeSpeed  ETV
vector 134  scenario.node[6].appl  nodeId  ETV
vector 138  scenario.node[6].appl  acceleration  ETV
vector 139  scenario.node[6].appl  controllerAcceleration  ETV
vector 135  scenario.node[6].appl  speed  ETV
vector 136  scenario.node[6].appl  posx  ETV
vector 137  scenario.node[6].appl  posy  ETV
vector 154  scenario.node[7].appl  distance  ETV
vector 155  scenario.node[7].appl  relativeSpeed  ETV
vector 156  scenario.node[7].appl  nodeId  ETV
vector 160  scenario.node[7].appl  acceleration  ETV
vector 161  scenario.node[7].appl  controllerAcceleration  ETV
vector 157  scenario.node[7].appl  speed  ETV
vector 158  scenario.node[7].appl  posx  ETV
vector 159  scenario.node[7].appl  posy  ETV
vector 35  scenario.node[1].prot  leaderDelay  ETV
vector 33  scenario.node[1].prot  leaderDelayId  ETV
vector 36  scenario.node[1].prot  frontDelay  ETV
vector 34  scenario.node[1].prot  frontDelayId  ETV
vector 57  scenario.node[2].prot  leaderDelay  ETV
vector 55  scenario.node[2].prot  leaderDelayId  ETV
vector 79  scenario.node[3].prot  leaderDelay  ETV
vector 77  scenario.node[3].prot  leaderDelayId  ETV
vector 101  scenario.node[4].prot  leaderDelay  ETV
vector 99  scenario.node[4].prot  leaderDelayId  ETV
vector 123  scenario.node[5].prot  leaderDelay  ETV
vector 121  scenario.node[5].prot  leaderDelayId  ETV
vector 145  scenario.node[6].prot  leaderDelay  ETV
vector 143  scenario.node[6].prot  leaderDelayId  ETV
vector 167  scenario.node[7].prot  leaderDelay  ETV
vector 165  scenario.node[7].prot  leaderDelayId  ETV
vector 168  scenario.node[7].prot  frontDelay  ETV
vector 166  scenario.node[7].prot  frontDelayId  ETV
vector 58  scenario.node[2].prot  frontDelay  ETV
vector 56  scenario.node[2].prot  frontDelayId  ETV
vector 124  scenario.node[5].prot  frontDelay  ETV
vector 122  scenario.node[5].prot  frontDelayId  ETV
vector 80  scenario.node[3].prot  frontDelay  ETV
vector 78  scenario.node[3].prot  frontDelayId  ETV
vector 146  scenario.node[6].prot  frontDelay  ETV
vector 144  scenario.node[6].prot  frontDelayId  ETV
vector 102  scenario.node[4].prot  frontDelay  ETV
vector 100  scenario.node[4].prot  frontDelayId  ETV
vector 8  scenario.node[0].prot  nodeId  ETV
vector 9  scenario.node[0].prot  busyTime  ETV
vector 10  scenario.node[0].prot  collisions  ETV
vector 30  scenario.node[1].prot  nodeId  ETV
vector 31  scenario.node[1].prot  busyTime  ETV
vector 32  scenario.node[1].prot  collisions  ETV
vector 52  scenario.node[2].prot  nodeId  ETV
vector 53  scenario.node[2].prot  busyTime  ETV
vector 54  scenario.node[2].prot  collisions  ETV
vector 74  scenario.node[3].prot  nodeId  ETV
vector 75  scenario.node[3].prot  busyTime  ETV
vector 76  scenario.node[3].prot  collisions  ETV
vector 96  scenario.node[4].prot  nodeId  ETV
vector 97  scenario.node[4].prot  busyTime  ETV
vector 98  scenario.node[4].prot  collisions  ETV
vector 118  scenario.node[5].prot  nodeId  ETV
vector 119  scenario.node[5].prot  busyTime  ETV
vector 120  scenario.node[5].prot  collisions  ETV
vector 140  scenario.node[6].prot  nodeId  ETV
vector 141  scenario.node[6].prot  busyTime  ETV
vector 142  scenario.node[6].prot  collisions  ETV
vector 162  scenario.node[7].prot  nodeId  ETV
vector 163  scenario.node[7].prot  busyTime  ETV
vector 164  scenario.node[7].prot  collisions  ETV
7	11244 13860 232 328174 1.11 59.91 589 -1.5 1.5 -14.445974034379 993.24092368185
6	25104 18594 232 328174 1.11 59.91 589 -1.4722746794938 1.4513434175793 -12.50726914995 675.29835222675
5	43698 12081 232 328174 1.11 59.91 589 36.55 36.55 21527.95 786846.5725
4	55779 17898 232 328174 1.11 59.91 589 105.1237327573 1742.7731982997 545025.41528578 636123946.51169
3	73677 17905 232 328174 1.11 59.91 589 26.487965859734 29.742492528104 16403.83880962 457295.15275867
1	91582 9725 232 328174 1.11 59.91 589 0 0 0 0
0	101307 10314 232 328174 1.11 59.91 589 -1 -1 -589 589
2	111621 9725 232 328174 1.11 59.91 589 0 0 0 0
10	121346 858 5056 328550 2 60 59 0 0 0 0
9	122204 1555 5056 328550 2 60 59 0.022754155264 0.026262295144 1.54525434943 0.040483387912863
8	123759 799 5056 328550 2 60 59 0 0 0 0
29	124558 19456 233 328175 1.11 59.91 589 -1.5233934266307 1.5241492081013 -0.31763855322982 515.88293265488
28	144014 19499 233 328175 1.11 59.91 589 -1.4872877099247 1.4632119897342 -0.42257784825992 351.42342079502
27	163513 12670 233 328175 1.11 59.91 589 36.55 36.55 21527.95 786846.5725
26	176183 18498 233 328175 1.11 59.91 589 96.123732757568 1723.8600652437 538286.34107263 622028959.42326
25	194681 18485 233 328175 1.11 59.91 589 26.480495436544 29.7479049181 16305.126187738 451693.80672948
23	213166 19693 233 328175 1.11 59.91 589 -1.2679196180427 2.1732908291205 98.837694573383 294.96684481522
22	232859 18508 233 328175 1.11 59.91 589 2.8020561676105 15.509007516663 4381.0999607178 40911.648256192
24	251367 10314 233 328175 1.11 59.91 589 1 1 589 589
36	261681 23664 836 328222 1.269557810561 59.969561665162 588 0.099998769589 0.10001234851 58.800002635141 5.8800005347399
35	285345 23664 836 328222 1.269557810561 59.969561665162 588 0.099998769589 0.10001234851 58.800002635141 5.8800005347399
34	309009 16117 836 328222 1.269557810561 59.969561665162 588 1 1 588 588
33	325126 16117 836 328222 1.269557810561 59.969561665162 588 1 1 588 588
32	341243 858 5057 328551 2 60 59 0 0 0 0
31	342101 1611 5057 328551 2 60 59 0.022754185285 0.026262292438 1.545254412194 0.040483390998053
30	343712 858 5057 328551 2 60 59 1 1 59 59
51	344570 19428 234 328176 1.11 59.91 589 -1.5293286426574 1.5293868312278 -1.4118856602743 520.18799170935
50	363998 19473 234 328176 1.11 59.91 589 -1.4784118018742 1.4535038994509 -1.5440974511979 350.8081544092
49	383471 12670 234 328176 1.11 59.91 589 36.55 36.55 21527.95 786846.5725
48	396141 18489 234 328176 1.11 59.91 589 87.123736572266 1707.4425426469 531939.59950193 609283576.61357
47	414630 18510 234 328176 1.11 59.91 589 26.432611022912 29.741726885622 16230.911620529 447675.10950657
45	433140 19924 234 328176 1.11 59.91 589 -0.011889281771836 0.47855234817498 74.218792986931 26.334002818577
44	453064 18512 234 328176 1.11 59.91 589 4.9825737970804 12.415275417962 3989.2572793555 31061.385398153
46	471576 10314 234 328176 1.11 59.91 589 2 2 1178 2356
58	481890 23666 1046 328426 1.299189200831 59.999193323211 588 0.099998769761 0.100012354772 58.80000290292 5.880000588299
57	505556 23664 842 328228 1.269557840582 59.969561719944 588 0.099998769624 0.100012348546 58.800002659902 5.8800005396921
56	529220 16113 1046 328426 1.299189200831 59.999193323211 588 2 2 1176 2352
55	545333 16113 842 328228 1.269557840582 59.969561719944 588 2 2 1176 2352
54	561446 858 5058 328552 2 60 59 0 0 0 0
53	562304 1615 5058 328552 2 60 59 0.022754215306 0.026262292721 1.545254466987 0.040483393664774
52	563919 858 5058 328552 2 60 59 2 2 118 236
73	564777 19385 235 328177 1.11 59.91 589 -1.4888807626142 1.4893729040721 -2.7997322897774 487.99929839536
72	584162 19436 235 328177 1.11 59.91 589 -1.4638941744185 1.4373649686267 -2.9963434257656 345.81742653752
71	603598 12670 235 328177 1.11 59.91 589 36.55 36.55 21527.95 786846.5725
70	616268 18493 235 328177 1.11 59.91 589 78.123736572266 1691.4618048302 525756.8162686 597138105.64466
69	634761 18504 235 328177 1.11 59.91 589 26.088094774982 29.728229054346 16161.053327758 443926.780745
67	653265 19761 235 328177 1.11 59.91 589 -0.037725854740227 0.42858165557444 69.873733746047 22.640240439773
66	673026 18459 235 328177 1.11 59.91 589 4.9599643548233 11.977823975733 3825.3860674669 28012.532143419
68	691485 10314 235 328177 1.11 59.91 589 3 3 1767 5301
80	701799 23668 1180 328569 1.300210350935 60.000214586358 588 0.09999876982 0.100012356543 58.800003015963 5.8800006109092
79	725467 23672 848 328234 1.269557870602 59.969561773274 588 0.099998769639 0.100012348597 58.800002683212 5.8800005443541
78	749139 16119 1180 328569 1.300210350935 60.000214586358 588 3 3 1764 5292
77	765258 16136 848 328234 1.269557870602 59.969561773274 588 3 3 1764 5292
76	781394 858 5059 328553 2 60 59 0 0 0 0
75	782252 1612 5059 328553 2 60 59 0.022753185285 0.026262292613 1.545253413642 0.040483345566703
74	783864 858 5059 328553 2 60 59 3 3 177 531
95	784722 19379 236 328178 1.11 59.91 589 -1.4835633702681 1.4833693276103 -4.5411172235911 480.66284765213
94	804101 19433 236 328178 1.11 59.91 589 -1.4536758915064 1.4275434732699 -4.8165620723825 342.17501058382
93	823534 12670 236 328178 1.11 59.91 589 36.55 36.55 21527.95 786846.5725
92	836204 18506 236 328178 1.11 59.91 589 69.123736572266 1676.0202547957 519722.1948608 585544734.56834
91	854710 18476 236 328178 1.11 59.91 589 25.811317171453 29.714956172217 16096.574007975 440498.04395824
89	873186 19963 236 328178 1.11 59.91 589 -0.012164313716085 0.37345325847603 64.50928321689 19.180263330915
88	893149 18456 236 328178 1.11 59.91 589 4.98505643639 11.43789717958 3677.3318214096 25359.857261265
90	911605 10314 236 328178 1.11 59.91 589 4 4 2356 9424
102	921919 24277 1312 328701 1.306028501039 60.006058840108 588 0.099907778958 0.10009031676 58.799964119609 5.8799939425673
101	946196 24240 854 328240 1.269557900623 59.969561824812 588 0.099998769648 0.10001234866 58.800002704729 5.8800005486575
100	970436 16721 1312 328701 1.306028501039 60.006058840108 588 4 4 2352 9408
99	987157 16117 854 328240 1.269557900623 59.969561824812 588 4 4 2352 9408
98	1003274 858 5060 328554 2 60 59 0 0 0 0
97	1004132 1616 5060 328554 2 60 59 0.022754155264 0.026262292549 1.545254362086 0.040483388577294
96	1005748 858 5060 328554 2 60 59 4 4 236 944
117	1006606 19965 237 328179 1.11 59.91 589 -1.5014801130213 1.5049213357984 -6.7158142049658 501.12026105558
116	1026571 20025 237 328179 1.11 59.91 589 -1.4472993340732 1.4222212039687 -6.9747608072614 340.03664913679
115	1046596 13259 237 328179 1.11 59.91 589 36.55 36.55 21527.95 786846.5725
114	1059855 19074 237 328179 1.11 59.91 589 60.123736572266 1661.188303349 513818.49895436 574450771.53785
113	1078929 19091 237 328179 1.11 59.91 589 25.58969582831 29.705511400843 16038.178878251 437419.00954151
111	1098020 20392 237 328179 1.11 59.91 589 -0.017702977715221 0.33721814896097 58.443295345282 16.228266910211
110	1118412 19058 237 328179 1.11 59.91 589 4.9951983100322 10.827623514117 3546.5280038443 23119.417807453
112	1137470 10903 237 328179 1.11 59.91 589 5 5 2945 14725
124	1148373 24238 1112 328492 1.299602290893 59.999593477644 588 0.099998769789 0.10001233762 58.799989967291 5.879998001027
123	1172611 24270 860 328246 1.269557930644 59.969561874322 588 0.099998769654 0.100012348736 58.800002724218 5.8800005525553
122	1196881 16705 1112 328492 1.299602290893 59.999593477644 588 5 5 2940 14700
121	1213586 16720 860 328246 1.269557930644 59.969561874322 588 5 5 2940 14700
120	1230306 917 5061 328555 2 60 59 0 0 0 0
119	1231223 1673 5061 328555 2 60 59 0.022753125244 0.026262292505 1.545253312555 0.040483340679568
118	1232896 917 5061 328555 2 60 59 5 5 295 1475
139	1233813 19916 238 328180 1.11 59.91 589 -1.4833385430233 1.4846826986197 -8.9380947768468 485.66212075382
138	1253729 20004 238 328180 1.11 59.91 589 -1.4512379873675 1.4281947180375 -9.3865945410272 345.03820936568
137	1273733 13259 238 328180 1.11 59.91 589 36.55 36.55 21527.95 786846.5725
136	1286992 19090 238 328180 1.11 59.91 589 51.123734664917 1647.0263172535 508026.73018971 563798913.07325
135	1306082 19067 238 328180 1.11 59.91 589 25.41391603517 29.71147884354 15986.474458574 434717.85643483
133	1325149 20337 238 328180 1.11 59.91 589 -0.042125327462184 0.30662100435251 51.774167284398 13.398171968216
132	1345486 19091 238 328180 1.11 59.91 589 4.9651253603753 10.157147654791 3434.7346762589 21278.49782262
134	1364577 10903 238 328180 1.11 59.91 589 6 6 3534 21204
146	1375480 24246 1249 328638 1.305615440997 60.005606734757 588 0.09999876984 0.10001233586 58.7999900743 5.8799980224279
145	1399726 24234 866 328252 1.269557960665 59.969561921602 588 0.099998769661 0.10001234882 58.800002741477 5.8800005560071
144	1423960 16707 1249 328638 1.305615440997 60.005606734757 588 6 6 3528 21168
143	1440667 16715 866 328252 1.269557960665 59.969561921602 588 6 6 3528 21168
142	1457382 917 5062 328556 2 60 59 0 0 0 0
141	1458299 1675 5062 328556 2 60 59 0.022754095223 0.026262292436 1.545254265251 0.040483383913265
140	1459974 917 5062 328556 2 60 59 6 6 354 2124
161	1460891 19967 239 328181 1.11 59.91 589 -1.5021746592368 1.5049027577872 -11.642611940626 506.37055578934
160	1480858 20036 239 328181 1.11 59.91 589 -1.4497273646167 1.4256030077757 -11.950462386971 343.64936169475
159	1500894 13259 239 328181 1.11 59.91 589 36.55 36.55 21527.95 786846.5725
158	1514153 19074 239 328181 1.11 59.91 589 42.123735618591 1633.5067358687 502335.33784346 553548713.11806
157	1533227 19095 239 328181 1.11 59.91 589 25.263394945598 29.708149860435 15941.188892969 432367.85679625
155	1552322 20646 239 328181 1.11 59.91 589 -0.0042090044330223 0.28727922214639 45.379431550198 10.900868223931
154	1572968 19081 239 328181 1.11 59.91 589 4.9903281269375 9.514447586072 3334.4866349302 19751.893662774
156	1592049 10903 239 328181 1.11 59.91 589 7 7 4123 28861
168	1602952 24253 980 328360 1.292107050727 59.992098057054 588 0.099998769657 0.100012330626 58.799989786867 5.8799979649401
167	1627205 24250 872 328258 1.269557990685 59.969561966741 588 0.099998769661 0.100012348908 58.800002756596 5.8800005590309
166	1651455 16703 980 328360 1.292107050727 59.992098057054 588 7 7 4116 28812
165	1668158 16696 872 328258 1.269557990685 59.969561966741 588 7 7 4116 28812
164	1684854 917 5063 328557 2 60 59 0 0 0 0
163	1685771 1672 5063 328557 2 60 59 0.022754065202 0.026262292445 1.545254220086 0.040483381752015
162	1687443 917 5063 328557 2 60 59 7 7 413 2891
