file 1685278 1501596723                                         
version 2
run SinusoidalJammingDetail-86-20170801-16:11:33-19390
attr CACCSpacing 9
attr attackAcc -30
attr attackPos 7
attr attackSpeed 150
attr attackStart 32.5
attr attacker 1
attr beaconInterval 0.1
attr configname SinusoidalJammingDetail
attr controller 1
attr datetime 20170801-16:11:33
attr experiment SinusoidalJammingDetail
attr fakeAcc "(1 == 4)"
attr fakePos "(1 == 2)"
attr fakeSpeed "(1 == 3)"
attr inifile omnetpp_86.ini
attr iterationvars "$leaderSpeed=50, $controller=1, $CACCSpacing=9, $sController=\"CACC\", $attacker=1, $attackStart=32.5, $attackSpeed=150, $attackPos=7, $attackAcc=-30, $0=9, $1=0, $nCars=8, $platoonSize=8, $nLanes=1, $beaconInterval=0.1, $priority=2, $packetSize=200, $ploegH=0.5, $leaderHeadway=1.2, $fakeSpeed=(1 == 3), $fakeAcc=(1 == 4), $fakePos=(1 == 2)"
attr iterationvarsf leaderSpeed=50,controller=1,CACCSpacing=9,sController=CACC,attacker=1,attackStart=32.5,attackSpeed=150,attackPos=7,attackAcc=-30,9,0,nCars=8,platoonSize=8,nLanes=1,beaconInterval=0.1,priority=2,packetSize=200,ploegH=0.5,leaderHeadway=1.2,fakeSpeed=(1_==_3),fakeAcc=(1_==_4),fakePos=(1_==_2)-
attr leaderHeadway 1.2
attr leaderSpeed 50
attr measurement "$leaderSpeed=50, $controller=1, $CACCSpacing=9, $sController=\"CACC\", $attacker=1, $attackStart=32.5, $attackSpeed=150, $attackPos=7, $attackAcc=-30, $0=9, $1=0, $nCars=8, $platoonSize=8, $nLanes=1, $beaconInterval=0.1, $priority=2, $packetSize=200, $ploegH=0.5, $leaderHeadway=1.2, $fakeSpeed=(1 == 3), $fakeAcc=(1 == 4), $fakePos=(1 == 2)"
attr nCars 8
attr nLanes 1
attr network scenario
attr packetSize 200
attr platoonSize 8
attr ploegH 0.5
attr priority 2
attr processid 19390
attr repetition 1
attr replication #1
attr resultdir results
attr runnumber 86
attr sController "\"CACC\""
attr seedset 1
param **.coreDebug false
param **.debug false
param **.headway 0.1s
param **.numberOfCars 8
param **.numberOfCarsPerPlatoon 8
param **.numberOfLanes 1
param **.numericController 1
param **.traffic.nCars 8
param **.traffic.nLanes 1
param **.traffic.platoonInsertDistance 9m
param **.traffic.platoonInsertHeadway 0s
param **.traffic.platoonInsertSpeed 50kmph
param **.traffic.platoonInsertTime "1 s"
param **.traffic.platoonLeaderHeadway 1.2s
param **.traffic.platoonSize 8
param **.traffic.platooningVType "\"vtypeauto\""
param **.traffic_type "\"PlatoonsTrafficManager\""
param *.**.nic.mac1609_4.bitrate 6Mbps
param *.**.nic.mac1609_4.txPower 100mW
param *.**.nic.mac1609_4.useServiceChannel false
param *.**.nic.phy80211p.analogueModels "xmldoc(\"config.xml\")"
param *.**.nic.phy80211p.decider "xmldoc(\"config.xml\")"
param *.**.nic.phy80211p.maxTXPower 100mW
param *.**.nic.phy80211p.sensitivity -94dBm
param *.**.nic.phy80211p.thermalNoise -95dBm
param *.**.nic.phy80211p.usePropagationDelay true
param *.**.nic.phy80211p.useThermalNoise true
param *.annotations.draw false
param *.connectionManager.alpha 2.0
param *.connectionManager.carrierFrequency "5.890e9 Hz"
param *.connectionManager.pMax 100mW
param *.connectionManager.sat -94dBm
param *.connectionManager.sendDirect true
param *.manager.autoShutdown true
param *.manager.commandLine "\"sumo --remote-port $port --seed $seed --configuration-file $configFile\""
param *.manager.configFile "\"./sumocfg/freeway.sumo.cfg\""
param *.manager.host "\"localhost\""
param *.manager.margin 25
param *.manager.moduleDisplayString "\"\""
param *.manager.moduleName "\"node\""
param *.manager.moduleType "\"Car\""
param *.manager.updateInterval 0.01s
param *.node[*].appl.attackStart 32.5s
param *.node[*].appl.attackerType 1
param *.node[*].appl.simulationDuration "60 s"
param *.node[*].appl_type "\"SimplePlatooningApp\""
param *.node[*].helper.nCars 8
param *.node[*].helper.nLanes 1
param *.node[*].helper.platoonSize 8
param *.node[*].helper_type "\"PositionHelper\""
param *.node[*].mobility.x 0
param *.node[*].mobility.y 0
param *.node[*].mobility.z 1.895
param *.node[*].prot.attackStart 32.5s
param *.node[*].prot.attackerType 1
param *.node[*].prot.attackingNode 3
param *.node[*].prot.beaconingInterval 0.1s
param *.node[*].prot.fakeAcc "(1 == 4)"
param *.node[*].prot.fakePos "(1 == 2)"
param *.node[*].prot.fakeSpeed "(1 == 3)"
param *.node[*].prot.maliciousAcc "-30 mpss"
param *.node[*].prot.maliciousSpeed 150kmph
param *.node[*].prot.packetSize 200
param *.node[*].prot.priority 2
param *.node[*].prot.shiftX "7 m"
param *.node[*].prot.useControllerAcceleration true
param *.node[*].protocol_type "\"SimplePlatooningBeaconing\""
param *.node[*].scenario.accHeadway 0.1s
param *.node[*].scenario.caccC1 0.5
param *.node[*].scenario.caccOmegaN "0.2 Hz"
param *.node[*].scenario.caccSpacing 9m
param *.node[*].scenario.caccXi 1
param *.node[*].scenario.controller "\"CACC\""
param *.node[*].scenario.engineTau "0.5 s"
param *.node[*].scenario.leaderHeadway 1.2s
param *.node[*].scenario.leaderOscillationFrequency "0.2 Hz"
param *.node[*].scenario.leaderSpeed 50kmph
param *.node[*].scenario.oscillationAmplitude "10 kmph"
param *.node[*].scenario.ploegH 0.5s
param *.node[*].scenario.ploegKd 0.7
param *.node[*].scenario.ploegKp 0.2
param *.node[*].scenario.startOscillating "5 s"
param *.node[*].scenario.useRealisticEngine false
param *.node[*].scenario_type "\"SinusoidalScenario\""
param *.node[*].unicast.packetLossRate 0
param *.obstacles.debug false
param *.playgroundSizeX 65000m
param *.playgroundSizeY 25000m
param *.playgroundSizeZ 50m
param *.world.use2D false
param *.world.useTorus false

vector 0  scenario.node[0].appl  distance  ETV
vector 1  scenario.node[0].appl  relativeSpeed  ETV
vector 2  scenario.node[0].appl  nodeId  ETV
vector 6  scenario.node[0].appl  acceleration  ETV
vector 7  scenario.node[0].appl  controllerAcceleration  ETV
vector 3  scenario.node[0].appl  speed  ETV
vector 4  scenario.node[0].appl  posx  ETV
vector 5  scenario.node[0].appl  posy  ETV
vector 22  scenario.node[1].appl  distance  ETV
vector 23  scenario.node[1].appl  relativeSpeed  ETV
vector 24  scenario.node[1].appl  nodeId  ETV
vector 28  scenario.node[1].appl  acceleration  ETV
vector 29  scenario.node[1].appl  controllerAcceleration  ETV
vector 25  scenario.node[1].appl  speed  ETV
vector 26  scenario.node[1].appl  posx  ETV
vector 27  scenario.node[1].appl  posy  ETV
vector 44  scenario.node[2].appl  distance  ETV
vector 45  scenario.node[2].appl  relativeSpeed  ETV
vector 46  scenario.node[2].appl  nodeId  ETV
vector 50  scenario.node[2].appl  acceleration  ETV
vector 51  scenario.node[2].appl  controllerAcceleration  ETV
vector 47  scenario.node[2].appl  speed  ETV
vector 48  scenario.node[2].appl  posx  ETV
vector 49  scenario.node[2].appl  posy  ETV
vector 66  scenario.node[3].appl  distance  ETV
vector 67  scenario.node[3].appl  relativeSpeed  ETV
vector 68  scenario.node[3].appl  nodeId  ETV
vector 72  scenario.node[3].appl  acceleration  ETV
vector 73  scenario.node[3].appl  controllerAcceleration  ETV
vector 69  scenario.node[3].appl  speed  ETV
vector 70  scenario.node[3].appl  posx  ETV
vector 71  scenario.node[3].appl  posy  ETV
vector 88  scenario.node[4].appl  distance  ETV
vector 89  scenario.node[4].appl  relativeSpeed  ETV
vector 90  scenario.node[4].appl  nodeId  ETV
vector 94  scenario.node[4].appl  acceleration  ETV
vector 95  scenario.node[4].appl  controllerAcceleration  ETV
vector 91  scenario.node[4].appl  speed  ETV
vector 92  scenario.node[4].appl  posx  ETV
vector 93  scenario.node[4].appl  posy  ETV
vector 110  scenario.node[5].appl  distance  ETV
vector 111  scenario.node[5].appl  relativeSpeed  ETV
vector 112  scenario.node[5].appl  nodeId  ETV
vector 116  scenario.node[5].appl  acceleration  ETV
vector 117  scenario.node[5].appl  controllerAcceleration  ETV
vector 113  scenario.node[5].appl  speed  ETV
vector 114  scenario.node[5].appl  posx  ETV
vector 115  scenario.node[5].appl  posy  ETV
vector 132  scenario.node[6].appl  distance  ETV
vector 133  scenario.node[6].appl  relativeSpeed  ETV
vector 134  scenario.node[6].appl  nodeId  ETV
vector 138  scenario.node[6].appl  acceleration  ETV
vector 139  scenario.node[6].appl  controllerAcceleration  ETV
vector 135  scenario.node[6].appl  speed  ETV
vector 136  scenario.node[6].appl  posx  ETV
vector 137  scenario.node[6].appl  posy  ETV
vector 154  scenario.node[7].appl  distance  ETV
vector 155  scenario.node[7].appl  relativeSpeed  ETV
vector 156  scenario.node[7].appl  nodeId  ETV
vector 160  scenario.node[7].appl  acceleration  ETV
vector 161  scenario.node[7].appl  controllerAcceleration  ETV
vector 157  scenario.node[7].appl  speed  ETV
vector 158  scenario.node[7].appl  posx  ETV
vector 159  scenario.node[7].appl  posy  ETV
vector 58  scenario.node[2].prot  frontDelay  ETV
vector 56  scenario.node[2].prot  frontDelayId  ETV
vector 102  scenario.node[4].prot  frontDelay  ETV
vector 100  scenario.node[4].prot  frontDelayId  ETV
vector 146  scenario.node[6].prot  frontDelay  ETV
vector 144  scenario.node[6].prot  frontDelayId  ETV
vector 168  scenario.node[7].prot  frontDelay  ETV
vector 166  scenario.node[7].prot  frontDelayId  ETV
vector 124  scenario.node[5].prot  frontDelay  ETV
vector 122  scenario.node[5].prot  frontDelayId  ETV
vector 35  scenario.node[1].prot  leaderDelay  ETV
vector 33  scenario.node[1].prot  leaderDelayId  ETV
vector 36  scenario.node[1].prot  frontDelay  ETV
vector 34  scenario.node[1].prot  frontDelayId  ETV
vector 57  scenario.node[2].prot  leaderDelay  ETV
vector 55  scenario.node[2].prot  leaderDelayId  ETV
vector 79  scenario.node[3].prot  leaderDelay  ETV
vector 77  scenario.node[3].prot  leaderDelayId  ETV
vector 101  scenario.node[4].prot  leaderDelay  ETV
vector 99  scenario.node[4].prot  leaderDelayId  ETV
vector 123  scenario.node[5].prot  leaderDelay  ETV
vector 121  scenario.node[5].prot  leaderDelayId  ETV
vector 145  scenario.node[6].prot  leaderDelay  ETV
vector 143  scenario.node[6].prot  leaderDelayId  ETV
vector 167  scenario.node[7].prot  leaderDelay  ETV
vector 165  scenario.node[7].prot  leaderDelayId  ETV
vector 80  scenario.node[3].prot  frontDelay  ETV
vector 78  scenario.node[3].prot  frontDelayId  ETV
vector 8  scenario.node[0].prot  nodeId  ETV
vector 9  scenario.node[0].prot  busyTime  ETV
vector 10  scenario.node[0].prot  collisions  ETV
vector 30  scenario.node[1].prot  nodeId  ETV
vector 31  scenario.node[1].prot  busyTime  ETV
vector 32  scenario.node[1].prot  collisions  ETV
vector 52  scenario.node[2].prot  nodeId  ETV
vector 53  scenario.node[2].prot  busyTime  ETV
vector 54  scenario.node[2].prot  collisions  ETV
vector 74  scenario.node[3].prot  nodeId  ETV
vector 75  scenario.node[3].prot  busyTime  ETV
vector 76  scenario.node[3].prot  collisions  ETV
vector 96  scenario.node[4].prot  nodeId  ETV
vector 97  scenario.node[4].prot  busyTime  ETV
vector 98  scenario.node[4].prot  collisions  ETV
vector 118  scenario.node[5].prot  nodeId  ETV
vector 119  scenario.node[5].prot  busyTime  ETV
vector 120  scenario.node[5].prot  collisions  ETV
vector 140  scenario.node[6].prot  nodeId  ETV
vector 141  scenario.node[6].prot  busyTime  ETV
vector 142  scenario.node[6].prot  collisions  ETV
vector 162  scenario.node[7].prot  nodeId  ETV
vector 163  scenario.node[7].prot  busyTime  ETV
vector 164  scenario.node[7].prot  collisions  ETV
7	11235 13860 232 328174 1.11 59.91 589 -1.5 1.5 -14.445969899918 993.24092361736
6	25095 18587 232 328174 1.11 59.91 589 -1.472274679513 1.4513434175798 -12.507264912644 675.29835211523
5	43682 12081 232 328174 1.11 59.91 589 36.55 36.55 21527.95 786846.5725
4	55763 17921 232 328174 1.11 59.91 589 124.9942813872 945.97707988514 316220.83487457 202820169.66412
3	73684 17901 232 328174 1.11 59.91 589 12.599076970844 15.853603639796 8223.2832500118 115251.79065057
1	91585 9725 232 328174 1.11 59.91 589 0 0 0 0
0	101310 10314 232 328174 1.11 59.91 589 -1 -1 -589 589
2	111624 9725 232 328174 1.11 59.91 589 0 0 0 0
10	121349 858 5168 328662 2 60 59 0 0 0 0
9	122207 1154 5168 328662 2 60 59 0.023297 0.02625 1.545797 0.040508375209
8	123361 799 5168 328662 2 60 59 0 0 0 0
29	124160 19452 233 328175 1.11 59.91 589 -1.555555192602 1.5570065793937 -0.45357429710726 530.86493132592
28	143612 19509 233 328175 1.11 59.91 589 -1.4954736405162 1.4761401704378 -0.42968706903768 356.95243836012
27	163121 12670 233 328175 1.11 59.91 589 36.55 36.55 21527.95 786846.5725
26	175791 18498 233 328175 1.11 59.91 589 111.99428138733 922.86889046829 307090.18061077 192295154.52467
25	194289 18492 233 328175 1.11 59.91 589 12.582739554075 15.862412181803 8122.6196548582 112343.83408547
23	212781 19535 233 328175 1.11 59.91 589 -1.2755473628069 2.1868022727363 100.78866780267 299.45744665868
22	232316 18498 233 328175 1.11 59.91 589 6.8022067073389 19.702764611667 6772.6409919021 86506.549891875
24	250814 10314 233 328175 1.11 59.91 589 1 1 589 589
36	261128 23710 1238 328624 1.297802300899 59.997808856485 588 0.09999868192 0.100012057392 58.800005249399 5.8800010584361
35	284838 23710 1238 328624 1.297802300899 59.997808856485 588 0.09999868192 0.100012057392 58.800005249399 5.8800010584361
34	308548 16128 1238 328624 1.297802300899 59.997808856485 588 1 1 588 588
33	324676 16128 1238 328624 1.297802300899 59.997808856485 588 1 1 588 588
32	340804 858 5169 328663 2 60 59 0 0 0 0
31	341662 1213 5169 328663 2 60 59 0.023297 0.02625 1.545797 0.040508375209
30	342875 858 5169 328663 2 60 59 1 1 59 59
51	343733 19402 234 328176 1.11 59.91 589 -1.5092135974097 1.5122039406897 -1.5349168971042 506.65517234266
50	363135 19467 234 328176 1.11 59.91 589 -1.4841297326063 1.4673660724707 -1.5689665886288 354.56838905741
49	382602 12670 234 328176 1.11 59.91 589 36.55 36.55 21527.95 786846.5725
48	395272 18501 234 328176 1.11 59.91 589 98.994281387329 902.33168538189 298368.20127955 182721168.46621
47	413773 18493 234 328176 1.11 59.91 589 12.521878033884 15.851008825246 8047.2077058076 110355.44234072
45	432266 19946 234 328176 1.11 59.91 589 -0.010773795665996 0.48477238925249 75.416245921357 27.110414915193
44	452212 18487 234 328176 1.11 59.91 589 8.9921308220552 16.534924410085 6364.4710922359 72936.635017918
46	470699 10314 234 328176 1.11 59.91 589 2 2 1178 2356
58	481013 23704 832 328212 1.212435737176 59.912442004438 588 0.099998682033 0.100012057608 58.800004961075 5.8800010007732
57	504717 23692 1244 328630 1.297802344263 59.99780892502 588 0.099998681957 0.10001205743 58.80000527457 5.8800010634703
56	528409 16121 832 328212 1.212435737176 59.912442004438 588 2 2 1176 2352
55	544530 16121 1244 328630 1.297802344263 59.99780892502 588 2 2 1176 2352
54	560651 858 5170 328664 2 60 59 0 0 0 0
53	561509 1213 5170 328664 2 60 59 0.023296 0.02625 1.545796 0.040508328616
52	562722 858 5170 328664 2 60 59 2 2 118 236
73	563580 19361 235 328177 1.11 59.91 589 -1.4954488815774 1.4986508547754 -2.9496124471663 494.17777143498
72	582941 19427 235 328177 1.11 59.91 589 -1.4697266269408 1.4522561960337 -3.0440698102142 350.06472815736
71	602368 12670 235 328177 1.11 59.91 589 36.55 36.55 21527.95 786846.5725
70	615038 18500 235 328177 1.11 59.91 589 85.994281387329 882.24230416221 289812.05110658 173657457.95809
69	633538 18487 235 328177 1.11 59.91 589 12.173473434805 15.836008806661 7976.262179674 108521.6371023
67	652025 19817 235 328177 1.11 59.91 589 -0.02193620377763 0.43265108153859 70.961215799432 23.108626785147
66	671842 18476 235 328177 1.11 59.91 589 8.9809316343225 16.086421588909 6198.7312624468 68497.152519245
68	690318 10314 235 328177 1.11 59.91 589 3 3 1767 5301
80	700632 23711 1312 328701 1.307224387626 60.007217992075 588 0.099998681999 0.100012053522 58.799992298262 5.8799984680686
79	724343 23719 1250 328636 1.297802387626 59.99780899207 588 0.099998681975 0.10001205748 58.800005298257 5.8800010682077
78	748062 16136 1312 328701 1.307224387626 60.007217992075 588 3 3 1764 5292
77	764198 16124 1250 328636 1.297802387626 59.99780899207 588 3 3 1764 5292
76	780322 858 5171 328665 2 60 59 0 0 0 0
75	781180 1213 5171 328665 2 60 59 0.023297 0.02625 1.545797 0.040508375209
74	782393 858 5171 328665 2 60 59 3 3 177 531
95	783251 19367 236 328178 1.11 59.91 589 -1.5015734358673 1.5060862511444 -4.7410001620094 503.34547829265
94	802618 19434 236 328178 1.11 59.91 589 -1.4671620223636 1.4503898338162 -4.895116190278 350.96398312002
93	822052 12670 236 328178 1.11 59.91 589 36.55 36.55 21527.95 786846.5725
92	834722 18485 236 328178 1.11 59.91 589 72.994281387329 862.70735261606 281406.34922538 165068867.4539
91	853207 18502 236 328178 1.11 59.91 589 11.894545090458 15.831996514873 7910.8477982545 106865.29461989
89	871709 19830 236 328178 1.11 59.91 589 -0.013223228742296 0.37549649756186 65.444822117572 19.588284924798
88	891539 18480 236 328178 1.11 59.91 589 8.9999999953162 15.531239845064 6048.3935935753 64577.424764419
90	910019 10314 236 328178 1.11 59.91 589 4 4 2356 9424
102	920333 24300 902 328282 1.235039823903 59.935046136623 588 0.099998682064 0.10001205772 58.800005006533 5.8800010098647
101	944633 24284 1256 328642 1.297802430989 59.997809057281 588 0.099998681986 0.100012057543 58.800005320105 5.8800010725773
100	968917 16726 902 328282 1.235039823903 59.935046136623 588 4 4 2352 9408
99	985643 16113 1256 328642 1.297802430989 59.997809057281 588 4 4 2352 9408
98	1001756 858 5172 328666 2 60 59 0 0 0 0
97	1002614 1213 5172 328666 2 60 59 0.023297 0.02625 1.545797 0.040508375209
96	1003827 858 5172 328666 2 60 59 4 4 236 944
117	1004685 19946 237 328179 1.11 59.91 589 -1.5284774914501 1.5300606456549 -6.9279901990222 518.57286400796
116	1024631 20000 237 328179 1.11 59.91 589 -1.4661745337744 1.4484846922654 -7.0852510283638 351.5419735433
115	1044631 13259 237 328179 1.11 59.91 589 36.55 36.55 21527.95 786846.5725
114	1057890 19086 237 328179 1.11 59.91 589 59.994281387329 843.78717229946 273136.75392058 156922397.42786
113	1076976 19076 237 328179 1.11 59.91 589 11.666922898127 15.829041329046 7851.5692270379 105391.47440719
111	1096052 20422 237 328179 1.11 59.91 589 -0.020206176854899 0.34215460290934 59.327522378539 16.820025435158
110	1116474 19050 237 328179 1.11 59.91 589 8.9767684394469 14.91578536289 5912.4097333734 61167.461700008
112	1135524 10903 237 328179 1.11 59.91 589 5 5 2945 14725
124	1146427 24285 1178 328558 1.297389127446 59.997382565342 588 0.099998682085 0.100012053302 58.799992131709 5.8799984347578
123	1170712 24314 1262 328648 1.297802474353 59.99780912045 588 0.099998681989 0.100012057616 58.80000533991 5.8800010765383
122	1195026 16701 1178 328558 1.297389127446 59.997382565342 588 5 5 2940 14700
121	1211727 16717 1262 328648 1.297802474353 59.99780912045 588 5 5 2940 14700
120	1228444 917 5173 328667 2 60 59 0 0 0 0
119	1229361 1272 5173 328667 2 60 59 0.023297 0.02625 1.545797 0.040508375209
118	1230633 917 5173 328667 2 60 59 5 5 295 1475
139	1231550 19976 238 328180 1.11 59.91 589 -1.4999727108308 1.5046152537571 -9.2524771606018 500.91527381939
138	1251526 20018 238 328180 1.11 59.91 589 -1.4605505330708 1.4432664538838 -9.5361372921976 349.2416009659
137	1271544 13259 238 328180 1.11 59.91 589 36.55 36.55 21527.95 786846.5725
136	1284803 19085 238 328180 1.11 59.91 589 46.994283294678 825.52995721181 264980.80171003 149175924.52744
135	1303888 19097 238 328180 1.11 59.91 589 11.484678624133 15.821388918979 7798.9112193709 104101.67462338
133	1322985 20356 238 328180 1.11 59.91 589 -0.021674888404252 0.31358944384116 52.728860177295 13.842390675785
132	1343341 19087 238 328180 1.11 59.91 589 8.9964394652667 14.252306587987 5798.8990503949 58387.412489882
134	1362428 10903 238 328180 1.11 59.91 589 6 6 3534 21204
146	1373331 24282 970 328350 1.24871291063 59.948706260673 588 0.099998682069 0.100012052881 58.799992043856 5.8799984171872
145	1397613 24273 1268 328654 1.297802517716 59.997809181415 588 0.099998681993 0.100012057699 58.800005357512 5.8800010800587
144	1421886 16704 970 328350 1.24871291063 59.948706260673 588 6 6 3528 21168
143	1438590 16703 1268 328654 1.297802517716 59.997809181415 588 6 6 3528 21168
142	1455293 917 5174 328668 2 60 59 0 0 0 0
141	1456210 1272 5174 328668 2 60 59 0.023297 0.02625 1.545797 0.040508375209
140	1457482 917 5174 328668 2 60 59 6 6 354 2124
161	1458399 19971 239 328181 1.11 59.91 589 -1.5093935068811 1.5126459143773 -11.850823029903 509.52321931128
160	1478370 20018 239 328181 1.11 59.91 589 -1.4619692773802 1.4451435683178 -12.135050615266 351.03178844035
159	1498388 13259 239 328181 1.11 59.91 589 36.55 36.55 21527.95 786846.5725
158	1511647 19070 239 328181 1.11 59.91 589 33.994282817841 807.95414066093 256923.30037586 141798404.88349
157	1530717 19078 239 328181 1.11 59.91 589 11.336258022241 15.82309172556 7753.0620781803 102999.50556072
155	1549795 20401 239 328181 1.11 59.91 589 -0.02190676328507 0.28967145073036 45.944502563523 11.091934660974
154	1570196 19089 239 328181 1.11 59.91 589 8.9915517079161 13.570611610564 5700.5843513531 56066.412685463
156	1589285 10903 239 328181 1.11 59.91 589 7 7 4123 28861
168	1600188 24285 1040 328420 1.263893953993 59.963887319343 588 0.099998682088 0.100012052971 58.799992059163 5.879998420249
167	1624473 24291 1274 328660 1.297802561079 59.997809240111 588 0.099998681996 0.100012057787 58.800005372845 5.8800010831253
166	1648764 16703 1040 328420 1.263893953993 59.963887319343 588 7 7 4116 28812
165	1665467 16705 1274 328660 1.297802561079 59.997809240111 588 7 7 4116 28812
164	1682172 917 5175 328669 2 60 59 0 0 0 0
163	1683089 1272 5175 328669 2 60 59 0.023297 0.02625 1.545797 0.040508375209
162	1684361 917 5175 328669 2 60 59 7 7 413 2891
