version 2
run SinusoidalJammingDetail-482-20170801-17:50:29-112440
attr CACCSpacing 7
attr attackAcc -30
attr attackPos 7
attr attackSpeed 150
attr attackStart 30
attr attacker 1
attr beaconInterval 0.1
attr configname SinusoidalJammingDetail
attr controller 1
attr datetime 20170801-17:50:29
attr experiment SinusoidalJammingDetail
attr fakeAcc "(1 == 4)"
attr fakePos "(1 == 2)"
attr fakeSpeed "(1 == 3)"
attr inifile omnetpp_482.ini
attr iterationvars "$leaderSpeed=120, $controller=1, $CACCSpacing=7, $sController=\"CACC\", $attacker=1, $attackStart=30, $attackSpeed=150, $attackPos=7, $attackAcc=-30, $0=7, $1=0, $nCars=8, $platoonSize=8, $nLanes=1, $beaconInterval=0.1, $priority=2, $packetSize=200, $ploegH=0.5, $leaderHeadway=1.2, $fakeSpeed=(1 == 3), $fakeAcc=(1 == 4), $fakePos=(1 == 2)"
attr iterationvarsf leaderSpeed=120,controller=1,CACCSpacing=7,sController=CACC,attacker=1,attackStart=30,attackSpeed=150,attackPos=7,attackAcc=-30,7,0,nCars=8,platoonSize=8,nLanes=1,beaconInterval=0.1,priority=2,packetSize=200,ploegH=0.5,leaderHeadway=1.2,fakeSpeed=(1_==_3),fakeAcc=(1_==_4),fakePos=(1_==_2)-
attr leaderHeadway 1.2
attr leaderSpeed 120
attr measurement "$leaderSpeed=120, $controller=1, $CACCSpacing=7, $sController=\"CACC\", $attacker=1, $attackStart=30, $attackSpeed=150, $attackPos=7, $attackAcc=-30, $0=7, $1=0, $nCars=8, $platoonSize=8, $nLanes=1, $beaconInterval=0.1, $priority=2, $packetSize=200, $ploegH=0.5, $leaderHeadway=1.2, $fakeSpeed=(1 == 3), $fakeAcc=(1 == 4), $fakePos=(1 == 2)"
attr nCars 8
attr nLanes 1
attr network scenario
attr packetSize 200
attr platoonSize 8
attr ploegH 0.5
attr priority 2
attr processid 112440
attr repetition 2
attr replication #2
attr resultdir results
attr runnumber 482
attr sController "\"CACC\""
attr seedset 2
param **.coreDebug false
param **.debug false
param **.headway 0.1s
param **.numberOfCars 8
param **.numberOfCarsPerPlatoon 8
param **.numberOfLanes 1
param **.numericController 1
param **.traffic.nCars 8
param **.traffic.nLanes 1
param **.traffic.platoonInsertDistance 7m
param **.traffic.platoonInsertHeadway 0s
param **.traffic.platoonInsertSpeed 120kmph
param **.traffic.platoonInsertTime "1 s"
param **.traffic.platoonLeaderHeadway 1.2s
param **.traffic.platoonSize 8
param **.traffic.platooningVType "\"vtypeauto\""
param **.traffic_type "\"PlatoonsTrafficManager\""
param *.**.nic.mac1609_4.bitrate 6Mbps
param *.**.nic.mac1609_4.txPower 100mW
param *.**.nic.mac1609_4.useServiceChannel false
param *.**.nic.phy80211p.analogueModels "xmldoc(\"config.xml\")"
param *.**.nic.phy80211p.decider "xmldoc(\"config.xml\")"
param *.**.nic.phy80211p.maxTXPower 100mW
param *.**.nic.phy80211p.sensitivity -94dBm
param *.**.nic.phy80211p.thermalNoise -95dBm
param *.**.nic.phy80211p.usePropagationDelay true
param *.**.nic.phy80211p.useThermalNoise true
param *.annotations.draw false
param *.connectionManager.alpha 2.0
param *.connectionManager.carrierFrequency "5.890e9 Hz"
param *.connectionManager.pMax 100mW
param *.connectionManager.sat -94dBm
param *.connectionManager.sendDirect true
param *.manager.autoShutdown true
param *.manager.commandLine "\"sumo --remote-port $port --seed $seed --configuration-file $configFile\""
param *.manager.configFile "\"./sumocfg/freeway.sumo.cfg\""
param *.manager.host "\"localhost\""
param *.manager.margin 25
param *.manager.moduleDisplayString "\"\""
param *.manager.moduleName "\"node\""
param *.manager.moduleType "\"Car\""
param *.manager.updateInterval 0.01s
param *.node[*].appl.attackStart 30s
param *.node[*].appl.attackerType 1
param *.node[*].appl.simulationDuration "60 s"
param *.node[*].appl_type "\"SimplePlatooningApp\""
param *.node[*].helper.nCars 8
param *.node[*].helper.nLanes 1
param *.node[*].helper.platoonSize 8
param *.node[*].helper_type "\"PositionHelper\""
param *.node[*].mobility.x 0
param *.node[*].mobility.y 0
param *.node[*].mobility.z 1.895
param *.node[*].prot.attackStart 30s
param *.node[*].prot.attackerType 1
param *.node[*].prot.attackingNode 3
param *.node[*].prot.beaconingInterval 0.1s
param *.node[*].prot.fakeAcc "(1 == 4)"
param *.node[*].prot.fakePos "(1 == 2)"
param *.node[*].prot.fakeSpeed "(1 == 3)"
param *.node[*].prot.maliciousAcc "-30 mpss"
param *.node[*].prot.maliciousSpeed 150kmph
param *.node[*].prot.packetSize 200
param *.node[*].prot.priority 2
param *.node[*].prot.shiftX "7 m"
param *.node[*].prot.useControllerAcceleration true
param *.node[*].protocol_type "\"SimplePlatooningBeaconing\""
param *.node[*].scenario.accHeadway 0.1s
param *.node[*].scenario.caccC1 0.5
param *.node[*].scenario.caccOmegaN "0.2 Hz"
param *.node[*].scenario.caccSpacing 7m
param *.node[*].scenario.caccXi 1
param *.node[*].scenario.controller "\"CACC\""
param *.node[*].scenario.engineTau "0.5 s"
param *.node[*].scenario.leaderHeadway 1.2s
param *.node[*].scenario.leaderOscillationFrequency "0.2 Hz"
param *.node[*].scenario.leaderSpeed 120kmph
param *.node[*].scenario.oscillationAmplitude "10 kmph"
param *.node[*].scenario.ploegH 0.5s
param *.node[*].scenario.ploegKd 0.7
param *.node[*].scenario.ploegKp 0.2
param *.node[*].scenario.startOscillating "5 s"
param *.node[*].scenario.useRealisticEngine false
param *.node[*].scenario_type "\"SinusoidalScenario\""
param *.node[*].unicast.packetLossRate 0
param *.obstacles.debug false
param *.playgroundSizeX 65000m
param *.playgroundSizeY 25000m
param *.playgroundSizeZ 50m
param *.world.use2D false
param *.world.useTorus false

vector 0  scenario.node[0].appl  distance  ETV
vector 1  scenario.node[0].appl  relativeSpeed  ETV
vector 2  scenario.node[0].appl  nodeId  ETV
vector 6  scenario.node[0].appl  acceleration  ETV
vector 7  scenario.node[0].appl  controllerAcceleration  ETV
vector 3  scenario.node[0].appl  speed  ETV
vector 4  scenario.node[0].appl  posx  ETV
vector 5  scenario.node[0].appl  posy  ETV
vector 22  scenario.node[1].appl  distance  ETV
vector 23  scenario.node[1].appl  relativeSpeed  ETV
vector 24  scenario.node[1].appl  nodeId  ETV
vector 28  scenario.node[1].appl  acceleration  ETV
vector 29  scenario.node[1].appl  controllerAcceleration  ETV
vector 25  scenario.node[1].appl  speed  ETV
vector 26  scenario.node[1].appl  posx  ETV
vector 27  scenario.node[1].appl  posy  ETV
vector 44  scenario.node[2].appl  distance  ETV
vector 45  scenario.node[2].appl  relativeSpeed  ETV
vector 46  scenario.node[2].appl  nodeId  ETV
vector 50  scenario.node[2].appl  acceleration  ETV
vector 51  scenario.node[2].appl  controllerAcceleration  ETV
vector 47  scenario.node[2].appl  speed  ETV
vector 48  scenario.node[2].appl  posx  ETV
vector 49  scenario.node[2].appl  posy  ETV
vector 66  scenario.node[3].appl  distance  ETV
vector 67  scenario.node[3].appl  relativeSpeed  ETV
vector 68  scenario.node[3].appl  nodeId  ETV
vector 72  scenario.node[3].appl  acceleration  ETV
vector 73  scenario.node[3].appl  controllerAcceleration  ETV
vector 69  scenario.node[3].appl  speed  ETV
vector 70  scenario.node[3].appl  posx  ETV
vector 71  scenario.node[3].appl  posy  ETV
vector 88  scenario.node[4].appl  distance  ETV
vector 89  scenario.node[4].appl  relativeSpeed  ETV
vector 90  scenario.node[4].appl  nodeId  ETV
vector 94  scenario.node[4].appl  acceleration  ETV
vector 95  scenario.node[4].appl  controllerAcceleration  ETV
vector 91  scenario.node[4].appl  speed  ETV
vector 92  scenario.node[4].appl  posx  ETV
vector 93  scenario.node[4].appl  posy  ETV
vector 110  scenario.node[5].appl  distance  ETV
vector 111  scenario.node[5].appl  relativeSpeed  ETV
vector 112  scenario.node[5].appl  nodeId  ETV
vector 116  scenario.node[5].appl  acceleration  ETV
vector 117  scenario.node[5].appl  controllerAcceleration  ETV
vector 113  scenario.node[5].appl  speed  ETV
vector 114  scenario.node[5].appl  posx  ETV
vector 115  scenario.node[5].appl  posy  ETV
vector 132  scenario.node[6].appl  distance  ETV
vector 133  scenario.node[6].appl  relativeSpeed  ETV
vector 134  scenario.node[6].appl  nodeId  ETV
vector 138  scenario.node[6].appl  acceleration  ETV
vector 139  scenario.node[6].appl  controllerAcceleration  ETV
vector 135  scenario.node[6].appl  speed  ETV
vector 136  scenario.node[6].appl  posx  ETV
vector 137  scenario.node[6].appl  posy  ETV
vector 154  scenario.node[7].appl  distance  ETV
vector 155  scenario.node[7].appl  relativeSpeed  ETV
vector 156  scenario.node[7].appl  nodeId  ETV
vector 160  scenario.node[7].appl  acceleration  ETV
vector 161  scenario.node[7].appl  controllerAcceleration  ETV
vector 157  scenario.node[7].appl  speed  ETV
vector 158  scenario.node[7].appl  posx  ETV
vector 159  scenario.node[7].appl  posy  ETV
vector 168  scenario.node[7].prot  frontDelay  ETV
vector 166  scenario.node[7].prot  frontDelayId  ETV
vector 146  scenario.node[6].prot  frontDelay  ETV
vector 144  scenario.node[6].prot  frontDelayId  ETV
vector 35  scenario.node[1].prot  leaderDelay  ETV
vector 33  scenario.node[1].prot  leaderDelayId  ETV
vector 36  scenario.node[1].prot  frontDelay  ETV
vector 34  scenario.node[1].prot  frontDelayId  ETV
vector 57  scenario.node[2].prot  leaderDelay  ETV
vector 55  scenario.node[2].prot  leaderDelayId  ETV
vector 79  scenario.node[3].prot  leaderDelay  ETV
vector 77  scenario.node[3].prot  leaderDelayId  ETV
vector 101  scenario.node[4].prot  leaderDelay  ETV
vector 99  scenario.node[4].prot  leaderDelayId  ETV
vector 123  scenario.node[5].prot  leaderDelay  ETV
vector 121  scenario.node[5].prot  leaderDelayId  ETV
vector 145  scenario.node[6].prot  leaderDelay  ETV
vector 143  scenario.node[6].prot  leaderDelayId  ETV
vector 167  scenario.node[7].prot  leaderDelay  ETV
vector 165  scenario.node[7].prot  leaderDelayId  ETV
vector 102  scenario.node[4].prot  frontDelay  ETV
vector 100  scenario.node[4].prot  frontDelayId  ETV
vector 80  scenario.node[3].prot  frontDelay  ETV
vector 78  scenario.node[3].prot  frontDelayId  ETV
vector 124  scenario.node[5].prot  frontDelay  ETV
vector 122  scenario.node[5].prot  frontDelayId  ETV
vector 58  scenario.node[2].prot  frontDelay  ETV
vector 56  scenario.node[2].prot  frontDelayId  ETV
vector 8  scenario.node[0].prot  nodeId  ETV
vector 9  scenario.node[0].prot  busyTime  ETV
vector 10  scenario.node[0].prot  collisions  ETV
vector 30  scenario.node[1].prot  nodeId  ETV
vector 31  scenario.node[1].prot  busyTime  ETV
vector 32  scenario.node[1].prot  collisions  ETV
vector 52  scenario.node[2].prot  nodeId  ETV
vector 53  scenario.node[2].prot  busyTime  ETV
vector 54  scenario.node[2].prot  collisions  ETV
vector 74  scenario.node[3].prot  nodeId  ETV
vector 75  scenario.node[3].prot  busyTime  ETV
vector 76  scenario.node[3].prot  collisions  ETV
vector 96  scenario.node[4].prot  nodeId  ETV
vector 97  scenario.node[4].prot  busyTime  ETV
vector 98  scenario.node[4].prot  collisions  ETV
vector 118  scenario.node[5].prot  nodeId  ETV
vector 119  scenario.node[5].prot  busyTime  ETV
vector 120  scenario.node[5].prot  collisions  ETV
vector 140  scenario.node[6].prot  nodeId  ETV
vector 141  scenario.node[6].prot  busyTime  ETV
vector 142  scenario.node[6].prot  collisions  ETV
vector 162  scenario.node[7].prot  nodeId  ETV
vector 163  scenario.node[7].prot  busyTime  ETV
vector 164  scenario.node[7].prot  collisions  ETV
7	232	1.11	1.264609664986e-06
7	788	1.21	1.2370558053476e-06
7	1344	1.31	1.1922643139428e-06
7	1900	1.41	1.1341353030048e-06
7	2456	1.51	1.0661075364737e-06
7	3012	1.61	9.9117950469463e-07
7	3568	1.71	9.1193474816009e-07
7	4124	1.81	8.3057002342457e-07
7	4680	1.91	7.4892560064654e-07
7	5244	2.01	6.6851609403784e-07
7	5800	2.11	5.9056183232542e-07
7	6356	2.21	5.1602003736662e-07
7	6912	2.31	4.4561458878434e-07
7	7468	2.41	3.7986517753552e-07
7	8024	2.51	3.1911461206846e-07
7	8580	2.61	2.6355444049386e-07
7	9136	2.71	2.1324864718508e-07
7	9692	2.81	1.6815555881067e-07
7	10248	2.91	1.2814749794643e-07
7	10812	3.01	9.3028553749264e-08
7	11368	3.11	6.255026363533e-08
7	11924	3.21	3.6425589655664e-08
7	12480	3.31	1.4340962195547e-08
7	13036	3.41	-4.0332679418498e-09
7	13592	3.51	-1.9034231968362e-08
7	14148	3.61	-3.0998883460143e-08
7	14704	3.71	-4.0258086642098e-08
7	15260	3.81	-4.7131671010447e-08
7	15816	3.91	-5.1925063360159e-08
7	16380	4.01	-5.4926061920924e-08
7	16936	4.11	-5.6402775783226e-08
7	17492	4.21	-5.6602530662531e-08
7	18048	4.31	-5.5751151251116e-08
7	18604	4.41	-5.4052726738973e-08
7	19160	4.51	-5.1689909241759e-08
7	19716	4.61	-4.8824482234977e-08
7	20272	4.71	-4.5598198994412e-08
7	20828	4.81	-4.2133798672239e-08
7	21384	4.91	-3.8536192903393e-08
7	21949	5.01	-3.4893794520485e-08
7	22506	5.11	0.34814783973202
7	23063	5.21	0.68726932535991
7	23620	5.31	1.0064705905053
7	24177	5.41	1.2963311346507
7	24734	5.51	1.5
7	25291	5.61	1.5
7	25848	5.71	1.5
7	26405	5.81	1.5
7	26962	5.91	1.5
7	27527	6.01	1.5
7	28084	6.11	1.5
7	28641	6.21	1.5
7	29198	6.31	1.5
7	29755	6.41	1.5
7	30312	6.51	1.4919234058593
7	30869	6.61	1.2264993209595
7	31426	6.71	0.92305383326438
7	31983	6.81	0.5890810138258
7	32540	6.91	0.23235621116515
7	33105	7.01	-0.13919560237429
7	33662	7.11	-0.51762846938546
7	34219	7.21	-0.89509994250727
7	34776	7.31	-1.2639902910536
7	35333	7.41	-1.5
7	35890	7.51	-1.5
7	36447	7.61	-1.5
7	37004	7.71	-1.5
7	37561	7.81	-1.5
7	38118	7.91	-1.5
7	38683	8.01	-1.5
7	39240	8.11	-1.5
7	39797	8.21	-1.5
7	40354	8.31	-1.5
7	40911	8.41	-1.5
7	41468	8.51	-1.5
7	42025	8.61	-1.5
7	42582	8.71	-1.5
7	43139	8.81	-1.5
7	43696	8.91	-1.5
7	44261	9.01	-1.5
7	44818	9.11	-1.5
7	45375	9.21	-1.5
7	45932	9.31	-1.5
7	46489	9.41	-1.5
7	47046	9.51	-1.178453590773
7	47603	9.61	-0.73985166452546
7	48160	9.71	-0.29046662090423
7	48717	9.81	0.15868205640434
7	49274	9.91	0.59737147663756
7	49839	10.01	1.0162504339375
7	50396	10.11	1.4069035496629
7	50953	10.21	1.5
7	51510	10.31	1.5
7	52067	10.41	1.5
7	52624	10.51	1.5
7	53181	10.61	1.5
7	53738	10.71	1.5
7	54295	10.81	1.5
7	54852	10.91	1.5
7	55417	11.01	1.5
7	55974	11.11	1.5
7	56531	11.21	1.5
7	57088	11.31	1.5
7	57645	11.41	1.5
7	58202	11.51	1.5
7	58759	11.61	1.5
7	59316	11.71	1.5
7	59873	11.81	1.5
7	60430	11.91	1.1420569522446
7	60995	12.01	0.73271074165216
7	61552	12.11	0.30763491694659
7	62109	12.21	-0.12290183408495
7	62666	12.31	-0.5491742287245
7	63223	12.41	-0.96209331723149
7	63780	12.51	-1.3532900275905
7	64337	12.61	-1.5
7	64894	12.71	-1.5
7	65451	12.81	-1.5
7	66008	12.91	-1.5
7	66573	13.01	-1.5
7	67130	13.11	-1.5
7	67687	13.21	-1.5
7	68244	13.31	-1.5
7	68801	13.41	-1.5
7	69358	13.51	-1.5
7	69915	13.61	-1.5
7	70472	13.71	-1.5
7	71029	13.81	-1.5
7	71586	13.91	-1.5
7	72151	14.01	-1.5
7	72708	14.11	-1.5
7	73265	14.21	-1.5
7	73822	14.31	-1.5
7	74379	14.41	-1.300830579343
7	74936	14.51	-0.88835736023715
7	75493	14.61	-0.45792464377335
7	76050	14.71	-0.020297800504288
7	76607	14.81	0.41435934755211
7	77164	14.91	0.83657487482698
7	77729	15.01	1.2376491838765
7	78286	15.11	1.5
7	78843	15.21	1.5
7	79400	15.31	1.5
7	79957	15.41	1.5
7	80514	15.51	1.5
7	81071	15.61	1.5
7	81628	15.71	1.5
7	82185	15.81	1.5
7	82742	15.91	1.5
7	83307	16.01	1.5
7	83864	16.11	1.5
7	84421	16.21	1.5
7	84978	16.31	1.5
7	85535	16.41	1.5
7	86092	16.51	1.5
7	86649	16.61	1.5
7	87206	16.71	1.5
7	87763	16.81	1.5
7	88320	16.91	1.2451238477297
7	88885	17.01	0.83347870134542
7	89442	17.11	0.40470958876118
7	89999	17.21	-0.030598062226161
7	90556	17.31	-0.46243980387321
7	91113	17.41	-0.88148335305221
7	91670	17.51	-1.2791500631775
7	92227	17.61	-1.5
7	92784	17.71	-1.5
7	93341	17.81	-1.5
7	93898	17.91	-1.5
7	94463	18.01	-1.5
7	95020	18.11	-1.5
7	95577	18.21	-1.5
7	96134	18.31	-1.5
7	96691	18.41	-1.5
7	97248	18.51	-1.5
7	97805	18.61	-1.5
7	98362	18.71	-1.5
7	98919	18.81	-1.5
7	99476	18.91	-1.5
7	100041	19.01	-1.5
7	100598	19.11	-1.5
7	101155	19.21	-1.5
7	101712	19.31	-1.5
7	102269	19.41	-1.2657245815155
7	102826	19.51	-0.85377693481785
7	103383	19.61	-0.42439560038367
7	103940	19.71	0.011767371265513
7	104497	19.81	0.44464851836144
7	105054	19.91	0.86486384400278
7	105619	20.01	1.2637899041103
7	106176	20.11	1.5
7	106733	20.21	1.5
7	107290	20.31	1.5
7	107847	20.41	1.5
7	108404	20.51	1.5
7	108961	20.61	1.5
7	109518	20.71	1.5
7	110075	20.81	1.5
7	110632	20.91	1.5
7	111197	21.01	1.5
7	111754	21.11	1.5
7	112311	21.21	1.5
7	112868	21.31	1.5
7	113425	21.41	1.5
7	113982	21.51	1.5
7	114539	21.61	1.5
7	115096	21.71	1.5
7	115653	21.81	1.5
7	116210	21.91	1.2580915517739
7	116775	22.01	0.84625491634584
7	117332	22.11	0.41709956367264
7	117889	22.21	-0.018747163545136
7	118446	22.31	-0.45124369149665
7	119003	22.41	-0.87102520538844
7	119560	22.51	-1.269484879462
7	120117	22.61	-1.5
7	120674	22.71	-1.5
7	121231	22.81	-1.5
7	121788	22.91	-1.5
7	122353	23.01	-1.5
7	122910	23.11	-1.5
7	123467	23.21	-1.5
7	124024	23.31	-1.5
7	124581	23.41	-1.5
7	125138	23.51	-1.5
7	125695	23.61	-1.5
7	126252	23.71	-1.5
7	126809	23.81	-1.5
7	127366	23.91	-1.5
7	127931	24.01	-1.5
7	128488	24.11	-1.5
7	129045	24.21	-1.5
7	129602	24.31	-1.5
7	130159	24.41	-1.260923965114
7	130716	24.51	-0.84904615684758
7	131273	24.61	-0.41980696481334
7	131830	24.71	0.016157099443966
7	132387	24.81	0.44879633965816
7	132944	24.91	0.86873882266688
7	133509	25.01	1.2673715557178
7	134066	25.11	1.5
7	134623	25.21	1.5
7	135180	25.31	1.5
7	135737	25.41	1.5
7	136294	25.51	1.5
7	136851	25.61	1.5
7	137408	25.71	1.5
7	137965	25.81	1.5
7	138522	25.91	1.5
7	139087	26.01	1.5
7	139644	26.11	1.5
7	140201	26.21	1.5
7	140758	26.31	1.5
7	141315	26.41	1.5
7	141872	26.51	1.5
7	142429	26.61	1.5
7	142986	26.71	1.5
7	143543	26.81	1.5
7	144100	26.91	1.2598728518647
7	144665	27.01	0.8480103225158
7	145222	27.11	0.41880224309308
7	145779	27.21	-0.017118277440183
7	146336	27.31	-0.44970455708226
7	146893	27.41	-0.86958730431697
7	147450	27.51	-1.2681558149808
7	148007	27.61	-1.5
7	148564	27.71	-1.5
7	149121	27.81	-1.5
7	149678	27.91	-1.5
7	150243	28.01	-1.5
7	150800	28.11	-1.5
7	151357	28.21	-1.5
7	151914	28.31	-1.5
7	152471	28.41	-1.5
7	153028	28.51	-1.5
7	153585	28.61	-1.5
7	154142	28.71	-1.5
7	154699	28.81	-1.5
7	155256	28.91	-1.5
7	155821	29.01	-1.5
7	156378	29.11	-1.5
7	156935	29.21	-1.5
7	157492	29.31	-1.5
7	158049	29.41	-1.2602629232501
7	158606	29.51	-0.84839472385493
7	159163	29.61	-0.41917509845157
7	159720	29.71	0.016761581288016
7	160277	29.81	0.44936751475895
7	160834	29.91	0.86927243012207
7	161399	30.01	1.2678647739113
7	161956	30.11	1.5
7	162513	30.21	1.5
7	163070	30.31	1.5
7	163627	30.41	1.5
7	164184	30.51	1.5
7	164741	30.61	1.5
7	165298	30.71	1.5
7	165855	30.81	1.5
7	166412	30.91	1.5
7	166977	31.01	1.5
7	167534	31.11	1.5
7	168091	31.21	1.5
7	168648	31.31	1.5
7	169205	31.41	1.5
7	169762	31.51	1.5
7	170319	31.61	1.5
7	170876	31.71	1.5
7	171433	31.81	1.5
7	171990	31.91	1.2601181665228
7	172555	32.01	0.84825207129951
7	173112	32.11	0.41903673064589
7	173669	32.21	-0.016893952361208
7	174226	32.31	-0.44949259223428
7	174783	32.41	-0.8693892809349
7	175340	32.51	-1.2679727801759
7	175897	32.61	-1.5
7	176454	32.71	-1.5
7	177011	32.81	-1.5
7	177568	32.91	-1.5
7	178133	33.01	-1.5
7	178690	33.11	-1.5
7	179247	33.21	-1.5
7	179804	33.31	-1.5
7	180361	33.41	-1.5
7	180918	33.51	-1.5
7	181475	33.61	-1.5
7	182032	33.71	-1.5
7	182589	33.81	-1.5
7	183146	33.91	-1.5
7	183711	34.01	-1.5
7	184268	34.11	-1.5
7	184825	34.21	-1.5
7	185382	34.31	-1.5
7	185939	34.41	-1.2601718862023
7	186496	34.51	-0.84830501011423
7	187053	34.61	-0.4190880793765
7	187610	34.71	0.016844829036998
7	188167	34.81	0.44944617558727
7	188724	34.91	0.86934591722826
7	189289	35.01	1.2679326987089
7	189846	35.11	1.5
7	190403	35.21	1.5
7	190960	35.31	1.5
7	191517	35.41	1.5
7	192074	35.51	1.5
7	192631	35.61	1.5
7	193188	35.71	1.5
7	193745	35.81	1.5
7	194302	35.91	1.5
7	194867	36.01	1.5
7	195424	36.11	1.5
7	195981	36.21	1.5
7	196538	36.31	1.5
7	197095	36.41	1.5
7	197652	36.51	1.5
7	198209	36.61	1.5
7	198766	36.71	1.5
7	199323	36.81	1.5
7	199880	36.91	1.2601519506582
7	200445	37.01	0.8482853643515
7	201002	37.11	0.41906902369898
7	201559	37.21	-0.016863058859116
7	202116	37.31	-0.4494634009528
7	202673	37.41	-0.86936200963788
7	203230	37.51	-1.2679475730689
7	203787	37.61	-1.5
7	204344	37.71	-1.5
7	204901	37.81	-1.5
7	205458	37.91	-1.5
7	206023	38.01	-1.5
7	206580	38.11	-1.5
7	207137	38.21	-1.5
7	207694	38.31	-1.5
7	208251	38.41	-1.5
7	208808	38.51	-1.5
7	209365	38.61	-1.5
7	209922	38.71	-1.5
7	210479	38.81	-1.5
7	211036	38.91	-1.5
7	211601	39.01	-1.5
7	212158	39.11	-1.5
7	212715	39.21	-1.5
7	213272	39.31	-1.5
7	213829	39.41	-1.2601593487987
7	214386	39.51	-0.84829265495303
7	214943	39.61	-0.41907609531791
7	215500	39.71	0.016856293717851
7	216057	39.81	0.44945700856871
7	216614	39.91	0.86935603769744
7	217179	40.01	1.2679420531505
7	217736	40.11	1.5
7	218293	40.21	1.5
7	218850	40.31	1.5
7	219407	40.41	1.5
7	219964	40.51	1.5
7	220521	40.61	1.5
7	221078	40.71	1.5
7	221635	40.81	1.5
7	222192	40.91	1.5
7	222757	41.01	1.5
7	223314	41.11	1.5
7	223871	41.21	1.5
7	224428	41.31	1.5
7	224985	41.41	1.5
7	225542	41.51	1.5
7	226099	41.61	1.5
7	226656	41.71	1.5
7	227213	41.81	1.5
7	227770	41.91	1.2601566033295
7	228335	42.01	0.84828994939176
7	228892	42.11	0.4190734710217
7	229449	42.21	-0.016858804279273
7	230006	42.31	-0.4494593807989
7	230563	42.41	-0.86935825389989
7	231120	42.51	-1.2679441016065
7	231677	42.61	-1.5
7	232234	42.71	-1.5
7	232791	42.81	-1.5
7	233348	42.91	-1.5
7	233913	43.01	-1.5
7	234470	43.11	-1.5
7	235027	43.21	-1.5
7	235584	43.31	-1.5
7	236141	43.41	-1.5
7	236698	43.51	-1.5
7	237255	43.61	-1.5
7	237812	43.71	-1.5
7	238369	43.81	-1.5
7	238926	43.91	-1.5
7	239491	44.01	-1.5
7	240048	44.11	-1.5
7	240605	44.21	-1.5
7	241162	44.31	-1.5
7	241719	44.41	-1.2601576221806
7	242276	44.51	-0.84829095343299
7	242833	44.61	-0.41907444490522
7	243390	44.71	0.016857872603133
7	243947	44.81	0.44945850045789
7	244504	44.91	0.86935743146116
7	245069	45.01	1.2679433414189
6	232	1.11	1.8587371641843e-07
6	788	1.21	3.7715039979958e-07
6	1344	1.31	5.2730015909219e-07
6	1900	1.41	6.4101826069418e-07
6	2456	1.51	7.2280812446479e-07
6	3012	1.61	7.7694011224594e-07
6	3568	1.71	8.0741315855448e-07
6	4124	1.81	8.1792990158647e-07
6	4680	1.91	8.1188602507609e-07
6	5244	2.01	7.9236670558203e-07
6	5800	2.11	7.6214163868826e-07
6	6356	2.21	7.2367640768789e-07
6	6912	2.31	6.7914172063865e-07
6	7468	2.41	6.3042691067494e-07
6	8024	2.51	5.791562784907e-07
6	8580	2.61	5.2670969807878e-07
6	9136	2.71	4.7423895921384e-07
6	9692	2.81	4.226883731917e-07
6	10248	2.91	3.7281679965417e-07
6	10812	3.01	3.2521825232834e-07
6	11368	3.11	2.8033753096679e-07
6	11924	3.21	2.3849224817241e-07
6	12480	3.31	1.9988561916762e-07
6	13036	3.41	1.6463133079014e-07
6	13592	3.51	1.3275709420668e-07
6	14148	3.61	1.0422880336591e-07
6	14704	3.71	7.8954798254927e-08
6	15260	3.81	5.6805049553077e-08
6	15816	3.91	3.7617553516611e-08
6	16380	4.01	2.1201884692346e-08
6	16936	4.11	7.354117315117e-09
6	17492	4.21	-4.1374903503311e-09
6	18048	4.31	-1.3491074923877e-08
6	18604	4.41	-2.0921930854456e-08
6	19160	4.51	-2.6641799877325e-08
6	19716	4.61	-3.0856028843118e-08
6	20272	4.71	-3.3759306461434e-08
6	20828	4.81	-3.5534952758098e-08
6	21384	4.91	-3.6354919075166e-08
6	21949	5.01	-3.6375524814503e-08
6	22506	5.11	0.0068263931019885
6	23063	5.21	0.074594779098902
6	23620	5.31	0.19005129180201
6	24177	5.41	0.34050267454901
6	24734	5.51	0.51301634170429
6	25291	5.61	0.6902545459468
6	25848	5.71	0.83572669343468
6	26405	5.81	0.95506452230651
6	26962	5.91	1.0529631073332
6	27527	6.01	1.1332740451195
6	28084	6.11	1.1991569863937
6	28641	6.21	1.2532039452594
6	29198	6.31	1.2975412760781
6	29755	6.41	1.3339133300356
6	30312	6.51	1.3635927180715
6	30869	6.61	1.3702053544215
6	31426	6.71	1.3272611853779
6	31983	6.81	1.2373810849141
6	32540	6.91	1.1040433684336
6	33105	7.01	0.93147091325463
6	33662	7.11	0.72451589912248
6	34219	7.21	0.48854317732108
6	34776	7.31	0.22931329054146
6	35333	7.41	-0.044839403605579
6	35890	7.51	-0.30626147870336
6	36447	7.61	-0.52071863355891
6	37004	7.71	-0.69664819594024
6	37561	7.81	-0.84097171333752
6	38118	7.91	-0.95936726546597
6	38683	8.01	-1.0564928553684
6	39240	8.11	-1.1361696679188
6	39797	8.21	-1.2015324056335
6	40354	8.31	-1.2551526163939
6	40911	8.41	-1.2991398651295
6	41468	8.51	-1.3352247298471
6	42025	8.61	-1.3648268872679
6	42582	8.71	-1.3891109667817
6	43139	8.81	-1.4090323701247
6	43696	8.91	-1.4253748594882
6	44261	9.01	-1.4387813928529
6	44818	9.11	-1.4497794197055
6	45375	9.21	-1.4588016323373
6	45932	9.31	-1.4662029891298
6	46489	9.41	-1.4722746795918
6	47046	9.51	-1.4696249147882
6	47603	9.61	-1.3967850640618
6	48160	9.71	-1.2587757643061
6	48717	9.81	-1.066095221988
6	49274	9.91	-0.82923335039382
6	49839	10.01	-0.55852907855325
6	50396	10.11	-0.26404116091285
6	50953	10.21	0.03943269852158
6	51510	10.31	0.30182609737963
6	52067	10.41	0.5170800760304
6	52624	10.51	0.69366331145844
6	53181	10.61	0.83852306842829
6	53738	10.71	0.95735852377814
6	54295	10.81	1.0548449875394
6	54852	10.91	1.1348178423468
6	55417	11.01	1.2004234378246
6	55974	11.11	1.2542428765379
6	56531	11.21	1.2983935615857
6	57088	11.31	1.3346125010031
6	57645	11.41	1.3643246463779
6	58202	11.51	1.3886989543209
6	58759	11.61	1.4086943764035
6	59316	11.71	1.4250975869132
6	59873	11.81	1.438553932767
6	60430	11.91	1.4345627372599
6	60995	12.01	1.3623449188415
6	61552	12.11	1.2299875654037
6	62109	12.21	1.0461448397272
6	62666	12.31	0.81967864243424
6	63223	12.41	0.55952045898948
6	63780	12.51	0.27454262943465
6	64337	12.61	-0.022341644934443
6	64894	12.71	-0.28780548062457
6	65451	12.81	-0.50557828691211
6	66008	12.91	-0.68422783830826
6	66573	13.01	-0.83078269407011
6	67130	13.11	-0.95100872083407
6	67687	13.21	-1.0496359374898
6	68244	13.31	-1.1305446069947
6	68801	13.41	-1.1969178964684
6	69358	13.51	-1.2513671116459
6	69915	13.61	-1.2960344327446
6	70472	13.71	-1.332677193669
6	71029	13.81	-1.3627370202968
6	71586	13.91	-1.3873965479647
6	72151	14.01	-1.4076259495631
6	72708	14.11	-1.4242211047723
6	73265	14.21	-1.4378349121337
6	73822	14.31	-1.4490029758569
6	74379	14.41	-1.4542593951873
6	74936	14.51	-1.4067454390094
6	75493	14.61	-1.2938574955413
6	76050	14.71	-1.1248409052385
6	76607	14.81	-0.90912582144114
6	77164	14.91	-0.65618298377643
6	77729	15.01	-0.37539052555147
6	78286	15.11	-0.078063005102535
6	78843	15.21	0.20543869666909
6	79400	15.31	0.438008835728
6	79957	15.41	0.62879735390737
6	80514	15.51	0.78531039043099
6	81071	15.61	0.9137055938524
6	81628	15.71	1.0190343806897
6	82185	15.81	1.1054406719012
6	82742	15.91	1.1763239259942
6	83307	16.01	1.2344728829795
6	83864	16.11	1.2821752809813
6	84421	16.21	1.3213078620829
6	84978	16.31	1.3534102084591
6	85535	16.41	1.3797453137308
6	86092	16.51	1.4013492725667
6	86649	16.61	1.4190720434684
6	87206	16.71	1.4336108884464
6	87763	16.81	1.4455378052055
6	88320	16.91	1.450294906531
6	88885	17.01	1.3935559567486
6	89442	17.11	1.273336870139
6	89999	17.21	1.0986742440473
6	90556	17.31	0.87879676590887
6	91113	17.41	0.62298329275308
6	91670	17.51	0.34043137852748
6	92227	17.61	0.043031849074282
6	92784	17.71	-0.23417644595867
6	93341	17.81	-0.46158379950043
6	93898	17.91	-0.64813703535762
6	94463	18.01	-0.80117566522802
6	95020	18.11	-0.92672064505877
6	95577	18.21	-1.0297112558206
6	96134	18.31	-1.1141994282617
6	96691	18.41	-1.1835091568834
6	97248	18.51	-1.240367274923
6	97805	18.61	-1.2870107353912
6	98362	18.71	-1.3252746188869
6	98919	18.81	-1.3566643306589
6	99476	18.91	-1.3824148273436
6	100041	19.01	-1.4035392035204
6	100598	19.11	-1.420868549603
6	101155	19.21	-1.4350846492
6	101712	19.31	-1.4467468023348
6	102269	19.41	-1.4517201941764
6	102826	19.51	-1.3984004323888
6	103383	19.61	-1.2808993810097
6	103940	19.71	-1.1083308503785
6	104497	19.81	-0.88999806036867
6	105054	19.91	-0.63525086466854
6	105619	20.01	-0.35335363991464
6	106176	20.11	-0.055983891308387
6	106733	20.21	0.22355126013309
6	107290	20.31	0.45286744637281
6	107847	20.41	0.64098658988812
6	108404	20.51	0.79530980944469
6	108961	20.61	0.92190860023891
6	109518	20.71	1.0257637030342
6	110075	20.81	1.1109610600442
6	110632	20.91	1.1808525670212
6	111197	21.01	1.2381879459461
6	111754	21.11	1.2852229265711
6	112311	21.21	1.3238079929607
6	112868	21.31	1.3554611865736
6	113425	21.41	1.3814278301389
6	113982	21.51	1.4027295220423
6	114539	21.61	1.4202043287803
6	115096	21.71	1.4345397567773
6	115653	21.81	1.4462998007623
6	116210	21.91	1.4512038299465
6	116775	22.01	1.3966149622043
6	117332	22.11	1.2781048258539
6	117889	22.21	1.104758616826
6	118446	22.31	0.88585193074024
6	119003	22.41	0.63070830476093
6	119560	22.51	0.34856734380924
6	120117	22.61	0.051185654368879
6	120674	22.71	-0.22748748564823
6	121231	22.81	-0.45609652228151
6	121788	22.91	-0.64363555681979
6	122353	23.01	-0.79748288496191
6	122910	23.11	-0.92369127904561
6	123467	23.21	-1.0272261205614
6	124024	23.31	-1.1121607517779
6	124581	23.41	-1.1818367320963
6	125138	23.51	-1.2389953040923
6	125695	23.61	-1.2858852414531
6	126252	23.71	-1.324351321847
6	126809	23.81	-1.355906905502
6	127366	23.91	-1.3817934749042
6	127931	24.01	-1.403029478103
6	128488	24.11	-1.4204503972238
6	129045	24.21	-1.4347416186069
6	129602	24.31	-1.4464653977718
6	130159	24.41	-1.4513952146871
6	130716	24.51	-1.397277320676
6	131273	24.61	-1.2791416668563
6	131830	24.71	-1.1060840673039
6	132387	24.81	-0.88739036841758
6	132944	24.91	-0.63239387292811
6	133509	25.01	-0.35034337811126
6	134066	25.11	-0.052966136912147
6	134623	25.21	0.22602686982154
6	135180	25.31	0.45489830857193
6	135737	25.41	0.64265260423966
6	136294	25.51	0.7966765214853
6	136851	25.61	0.92302978013734
6	137408	25.71	1.0266834610576
6	137965	25.81	1.1117155819754
6	138522	25.91	1.1814715378058
6	139087	26.01	1.2386957175771
6	139644	26.11	1.2856394761641
6	140201	26.21	1.3241497087101
6	140758	26.31	1.3557415125085
6	141315	26.41	1.3816577950429
6	141872	26.51	1.4029181733591
6	142429	26.61	1.4203590885664
6	142986	26.71	1.4346667137048
6	143543	26.81	1.4464039496623
6	144100	26.91	1.4513241957715
6	144665	27.01	1.3970315218245
6	145222	27.11	1.2787568961947
6	145779	27.21	1.1055921925461
6	146336	27.31	0.8868194531928
6	146893	27.41	0.63176835684402
6	147450	27.51	0.34968428947408
6	148007	27.61	0.052305397196051
6	148564	27.71	-0.22656890652399
6	149121	27.81	-0.45534296745871
6	149678	27.91	-0.64301737940156
6	150243	28.01	-0.79697576417033
6	150800	28.11	-0.92327526336575
6	151357	28.21	-1.0268848428062
6	151914	28.31	-1.1118807851517
6	152471	28.41	-1.1816070619503
6	153028	28.51	-1.2388068945782
6	153585	28.61	-1.2857306800278
6	154142	28.71	-1.3242245276466
6	154699	28.81	-1.3558028900952
6	155256	28.91	-1.3817081460417
6	155821	29.01	-1.4029594787168
6	156378	29.11	-1.4203929733462
6	156935	29.21	-1.4346945110262
6	157492	29.31	-1.446426753148
6	158049	29.41	-1.4513505510308
6	158606	29.51	-1.3971227384744
6	159163	29.61	-1.2788996857282
6	159720	29.71	-1.1057747287524
6	160277	29.81	-0.88703132157306
6	160834	29.91	-0.63200048778285
6	161399	30.01	-0.34992887930017
6	161956	30.11	-0.052550599748002
6	162513	30.21	0.22636775502534
6	163070	30.31	0.45517795316812
6	163627	30.41	0.64288201020943
6	164184	30.51	0.79686471428317
6	164741	30.61	0.92318416377992
6	165298	30.71	1.0268101094155
6	165855	30.81	1.1118194777403
6	166412	30.91	1.181556768519
6	166977	31.01	1.2387656364474
6	167534	31.11	1.2856968339904
6	168091	31.21	1.3241967621056
6	168648	31.31	1.3557801126808
6	169205	31.41	1.3816894606293
6	169762	31.51	1.4029441501705
6	170319	31.61	1.4203803985993
6	170876	31.71	1.434684195354
6	171433	31.81	1.4464182907048
6	171990	31.91	1.4513407705138
6	172555	32.01	1.3970888876891
6	173112	32.11	1.2788466960821
6	173669	32.21	1.1057069889901
6	174226	32.31	0.88695269654835
6	174783	32.41	0.63191434325702
6	175340	32.51	0.3498381112415
6	175897	32.61	0.052459604304289
6	176454	32.71	-0.22644240298533
6	177011	32.81	-0.45523919049515
6	177568	32.91	-0.64293224614715
6	178133	33.01	-0.79690592524955
6	178690	33.11	-0.92321797112547
6	179247	33.21	-1.0268378432137
6	179804	33.31	-1.1118422291148
6	180361	33.41	-1.1815754325717
6	180918	33.51	-1.2387809474724
6	181475	33.61	-1.2857093943644
6	182032	33.71	-1.3242070659885
6	182589	33.81	-1.3557885654535
6	183146	33.91	-1.3816963948479
6	183711	34.01	-1.4029498386442
6	184268	34.11	-1.4203850651299
6	184825	34.21	-1.4346880235344
6	185382	34.31	-1.4464214311445
6	185939	34.41	-1.4513444000933
6	186496	34.51	-1.3971014498217
6	187053	34.61	-1.2788663607076
6	187610	34.71	-1.1057321274301
6	188167	34.81	-0.88698187454312
6	188724	34.91	-0.63194631176131
6	189289	35.01	-0.34987179555372
6	189846	35.11	-0.052493373000573
6	190403	35.21	0.22641470089155
6	190960	35.31	0.45521646513009
6	191517	35.41	0.64291360343205
6	192074	35.51	0.79689063173021
6	192631	35.61	0.92320542511359
6	193188	35.71	1.0268275511145
6	193745	35.81	1.1118337860083
6	194302	35.91	1.1815685062835
6	194867	36.01	1.2387752655023
6	195424	36.11	1.2857047331693
6	195981	36.21	1.3242032421843
6	196538	36.31	1.3557854286027
6	197095	36.41	1.3816938215371
6	197652	36.51	1.4029477276331
6	198209	36.61	1.4203833333653
6	198766	36.71	1.4346866028845
6	199323	36.81	1.4464202657166
6	199880	36.91	1.4513430531451
6	200445	37.01	1.397096787975
6	201002	37.11	1.2788590631018
6	201559	37.21	1.105722798475
6	202116	37.31	0.88697104649569
6	202673	37.41	0.63193444814758
6	203230	37.51	0.34985929519777
6	203787	37.61	0.052480841328872
6	204344	37.71	-0.22642498122849
6	204901	37.81	-0.4552248985874
6	205458	37.91	-0.64292052180548
6	206023	38.01	-0.79689630720523
6	206580	38.11	-0.92321008097898
6	207137	38.21	-1.0268313705467
6	207694	38.31	-1.1118369192744
6	208251	38.41	-1.1815710766527
6	208808	38.51	-1.2387773741011
6	209365	38.61	-1.2857064629564
6	209922	38.71	-1.3242046612127
6	210479	38.81	-1.3557865927005
6	211036	38.91	-1.3816947765022
6	211601	39.01	-1.4029485110377
6	212158	39.11	-1.4203839760292
6	212715	39.21	-1.4346871300937
6	213272	39.31	-1.4464206982126
6	213829	39.41	-1.4513435530041
6	214386	39.51	-1.3970985180023
6	214943	39.61	-1.278861771268
6	215500	39.71	-1.1057262604808
6	216057	39.81	-0.88697506482021
6	216614	39.91	-0.63193885077268
6	217179	40.01	-0.34986393411884
6	217736	40.11	-0.052485491870868
6	218293	40.21	0.22642116616325
6	218850	40.31	0.455221768906
6	219407	40.41	0.64291795437512
6	219964	40.51	0.79689420101801
6	220521	40.61	0.92320835317281
6	221078	40.71	1.0268299531432
6	221635	40.81	1.1118357565088
6	222192	40.91	1.1815701227796
6	222757	41.01	1.2387765915925
6	223314	41.11	1.2857058210251
6	223871	41.21	1.3242041346054
6	224428	41.31	1.3557861606998
6	224985	41.41	1.3816944221119
6	225542	41.51	1.4029482203135
6	226099	41.61	1.4203837375341
6	226656	41.71	1.434686934445
6	227213	41.81	1.4464205377131
6	227770	41.91	1.4513433675056
6	228335	42.01	1.3970978759843
6	228892	42.11	1.27886076626
6	229449	42.21	1.1057249757201
6	230006	42.31	0.88697357360843
6	230563	42.41	0.63193721694788
6	231120	42.51	0.34986221260453
6	231677	42.61	0.052483766043565
6	232234	42.71	-0.22642258194239
6	232791	42.81	-0.45522293033713
6	233348	42.91	-0.64291890715467
6	233913	43.01	-0.79689498262923
6	234470	43.11	-0.92320899436658
6	235027	43.21	-1.0268304791452
6	235584	43.31	-1.1118361880143
6	236141	43.41	-1.1815704767656
6	236698	43.51	-1.2387768819849
6	237255	43.61	-1.2857060592488
6	237812	43.71	-1.3242043300316
6	238369	43.81	-1.3557863210153
6	238926	43.91	-1.381694553627
6	239491	44.01	-1.4029483282016
6	240048	44.11	-1.4203838260407
6	240605	44.21	-1.4346870070497
6	241162	44.31	-1.4464205972743
6	241719	44.41	-1.451343436343
6	242276	44.51	-1.3970981142386
6	242833	44.61	-1.2788611392217
6	243390	44.71	-1.1057254524992
6	243947	44.81	-0.88697412700114
6	244504	44.91	-0.63193782326465
6	245069	45.01	-0.34986285146203
5	232	1.11	36.55
5	788	1.21	36.55
5	1344	1.31	36.55
5	1900	1.41	36.55
5	2456	1.51	36.55
5	3012	1.61	36.55
5	3568	1.71	36.55
5	4124	1.81	36.55
5	4680	1.91	36.55
5	5244	2.01	36.55
5	5800	2.11	36.55
5	6356	2.21	36.55
5	6912	2.31	36.55
5	7468	2.41	36.55
5	8024	2.51	36.55
5	8580	2.61	36.55
5	9136	2.71	36.55
5	9692	2.81	36.55
5	10248	2.91	36.55
5	10812	3.01	36.55
5	11368	3.11	36.55
5	11924	3.21	36.55
5	12480	3.31	36.55
5	13036	3.41	36.55
5	13592	3.51	36.55
5	14148	3.61	36.55
5	14704	3.71	36.55
5	15260	3.81	36.55
5	15816	3.91	36.55
5	16380	4.01	36.55
5	16936	4.11	36.55
5	17492	4.21	36.55
5	18048	4.31	36.55
5	18604	4.41	36.55
5	19160	4.51	36.55
5	19716	4.61	36.55
5	20272	4.71	36.55
5	20828	4.81	36.55
5	21384	4.91	36.55
5	21949	5.01	36.55
5	22506	5.11	36.55
5	23063	5.21	36.55
5	23620	5.31	36.55
5	24177	5.41	36.55
5	24734	5.51	36.55
5	25291	5.61	36.55
5	25848	5.71	36.55
5	26405	5.81	36.55
5	26962	5.91	36.55
5	27527	6.01	36.55
5	28084	6.11	36.55
5	28641	6.21	36.55
5	29198	6.31	36.55
5	29755	6.41	36.55
5	30312	6.51	36.55
5	30869	6.61	36.55
5	31426	6.71	36.55
5	31983	6.81	36.55
5	32540	6.91	36.55
5	33105	7.01	36.55
5	33662	7.11	36.55
5	34219	7.21	36.55
5	34776	7.31	36.55
5	35333	7.41	36.55
5	35890	7.51	36.55
5	36447	7.61	36.55
5	37004	7.71	36.55
5	37561	7.81	36.55
5	38118	7.91	36.55
5	38683	8.01	36.55
5	39240	8.11	36.55
5	39797	8.21	36.55
5	40354	8.31	36.55
5	40911	8.41	36.55
5	41468	8.51	36.55
5	42025	8.61	36.55
5	42582	8.71	36.55
5	43139	8.81	36.55
5	43696	8.91	36.55
5	44261	9.01	36.55
5	44818	9.11	36.55
5	45375	9.21	36.55
5	45932	9.31	36.55
5	46489	9.41	36.55
5	47046	9.51	36.55
5	47603	9.61	36.55
5	48160	9.71	36.55
5	48717	9.81	36.55
5	49274	9.91	36.55
5	49839	10.01	36.55
5	50396	10.11	36.55
5	50953	10.21	36.55
5	51510	10.31	36.55
5	52067	10.41	36.55
5	52624	10.51	36.55
5	53181	10.61	36.55
5	53738	10.71	36.55
5	54295	10.81	36.55
5	54852	10.91	36.55
5	55417	11.01	36.55
5	55974	11.11	36.55
5	56531	11.21	36.55
5	57088	11.31	36.55
5	57645	11.41	36.55
5	58202	11.51	36.55
5	58759	11.61	36.55
5	59316	11.71	36.55
5	59873	11.81	36.55
5	60430	11.91	36.55
5	60995	12.01	36.55
5	61552	12.11	36.55
5	62109	12.21	36.55
5	62666	12.31	36.55
5	63223	12.41	36.55
5	63780	12.51	36.55
5	64337	12.61	36.55
5	64894	12.71	36.55
5	65451	12.81	36.55
5	66008	12.91	36.55
5	66573	13.01	36.55
5	67130	13.11	36.55
5	67687	13.21	36.55
5	68244	13.31	36.55
5	68801	13.41	36.55
5	69358	13.51	36.55
5	69915	13.61	36.55
5	70472	13.71	36.55
5	71029	13.81	36.55
5	71586	13.91	36.55
5	72151	14.01	36.55
5	72708	14.11	36.55
5	73265	14.21	36.55
5	73822	14.31	36.55
5	74379	14.41	36.55
5	74936	14.51	36.55
5	75493	14.61	36.55
5	76050	14.71	36.55
5	76607	14.81	36.55
5	77164	14.91	36.55
5	77729	15.01	36.55
5	78286	15.11	36.55
5	78843	15.21	36.55
5	79400	15.31	36.55
5	79957	15.41	36.55
5	80514	15.51	36.55
5	81071	15.61	36.55
5	81628	15.71	36.55
5	82185	15.81	36.55
5	82742	15.91	36.55
5	83307	16.01	36.55
5	83864	16.11	36.55
5	84421	16.21	36.55
5	84978	16.31	36.55
5	85535	16.41	36.55
5	86092	16.51	36.55
5	86649	16.61	36.55
5	87206	16.71	36.55
5	87763	16.81	36.55
5	88320	16.91	36.55
5	88885	17.01	36.55
5	89442	17.11	36.55
5	89999	17.21	36.55
5	90556	17.31	36.55
5	91113	17.41	36.55
5	91670	17.51	36.55
5	92227	17.61	36.55
5	92784	17.71	36.55
5	93341	17.81	36.55
5	93898	17.91	36.55
5	94463	18.01	36.55
5	95020	18.11	36.55
5	95577	18.21	36.55
5	96134	18.31	36.55
5	96691	18.41	36.55
5	97248	18.51	36.55
5	97805	18.61	36.55
5	98362	18.71	36.55
5	98919	18.81	36.55
5	99476	18.91	36.55
5	100041	19.01	36.55
5	100598	19.11	36.55
5	101155	19.21	36.55
5	101712	19.31	36.55
5	102269	19.41	36.55
5	102826	19.51	36.55
5	103383	19.61	36.55
5	103940	19.71	36.55
5	104497	19.81	36.55
5	105054	19.91	36.55
5	105619	20.01	36.55
5	106176	20.11	36.55
5	106733	20.21	36.55
5	107290	20.31	36.55
5	107847	20.41	36.55
5	108404	20.51	36.55
5	108961	20.61	36.55
5	109518	20.71	36.55
5	110075	20.81	36.55
5	110632	20.91	36.55
5	111197	21.01	36.55
5	111754	21.11	36.55
5	112311	21.21	36.55
5	112868	21.31	36.55
5	113425	21.41	36.55
5	113982	21.51	36.55
5	114539	21.61	36.55
5	115096	21.71	36.55
5	115653	21.81	36.55
5	116210	21.91	36.55
5	116775	22.01	36.55
5	117332	22.11	36.55
5	117889	22.21	36.55
5	118446	22.31	36.55
5	119003	22.41	36.55
5	119560	22.51	36.55
5	120117	22.61	36.55
5	120674	22.71	36.55
5	121231	22.81	36.55
5	121788	22.91	36.55
5	122353	23.01	36.55
5	122910	23.11	36.55
5	123467	23.21	36.55
5	124024	23.31	36.55
5	124581	23.41	36.55
5	125138	23.51	36.55
5	125695	23.61	36.55
5	126252	23.71	36.55
5	126809	23.81	36.55
5	127366	23.91	36.55
5	127931	24.01	36.55
5	128488	24.11	36.55
5	129045	24.21	36.55
5	129602	24.31	36.55
5	130159	24.41	36.55
5	130716	24.51	36.55
5	131273	24.61	36.55
5	131830	24.71	36.55
5	132387	24.81	36.55
5	132944	24.91	36.55
5	133509	25.01	36.55
5	134066	25.11	36.55
5	134623	25.21	36.55
5	135180	25.31	36.55
5	135737	25.41	36.55
5	136294	25.51	36.55
5	136851	25.61	36.55
5	137408	25.71	36.55
5	137965	25.81	36.55
5	138522	25.91	36.55
5	139087	26.01	36.55
5	139644	26.11	36.55
5	140201	26.21	36.55
5	140758	26.31	36.55
5	141315	26.41	36.55
5	141872	26.51	36.55
5	142429	26.61	36.55
5	142986	26.71	36.55
5	143543	26.81	36.55
5	144100	26.91	36.55
5	144665	27.01	36.55
5	145222	27.11	36.55
5	145779	27.21	36.55
5	146336	27.31	36.55
5	146893	27.41	36.55
5	147450	27.51	36.55
5	148007	27.61	36.55
5	148564	27.71	36.55
5	149121	27.81	36.55
5	149678	27.91	36.55
5	150243	28.01	36.55
5	150800	28.11	36.55
5	151357	28.21	36.55
5	151914	28.31	36.55
5	152471	28.41	36.55
5	153028	28.51	36.55
5	153585	28.61	36.55
5	154142	28.71	36.55
5	154699	28.81	36.55
5	155256	28.91	36.55
5	155821	29.01	36.55
5	156378	29.11	36.55
5	156935	29.21	36.55
5	157492	29.31	36.55
5	158049	29.41	36.55
5	158606	29.51	36.55
5	159163	29.61	36.55
5	159720	29.71	36.55
5	160277	29.81	36.55
5	160834	29.91	36.55
5	161399	30.01	36.55
5	161956	30.11	36.55
5	162513	30.21	36.55
5	163070	30.31	36.55
5	163627	30.41	36.55
5	164184	30.51	36.55
5	164741	30.61	36.55
5	165298	30.71	36.55
5	165855	30.81	36.55
5	166412	30.91	36.55
5	166977	31.01	36.55
5	167534	31.11	36.55
5	168091	31.21	36.55
5	168648	31.31	36.55
5	169205	31.41	36.55
5	169762	31.51	36.55
5	170319	31.61	36.55
5	170876	31.71	36.55
5	171433	31.81	36.55
5	171990	31.91	36.55
5	172555	32.01	36.55
5	173112	32.11	36.55
5	173669	32.21	36.55
5	174226	32.31	36.55
5	174783	32.41	36.55
5	175340	32.51	36.55
5	175897	32.61	36.55
5	176454	32.71	36.55
5	177011	32.81	36.55
5	177568	32.91	36.55
5	178133	33.01	36.55
5	178690	33.11	36.55
5	179247	33.21	36.55
5	179804	33.31	36.55
5	180361	33.41	36.55
5	180918	33.51	36.55
5	181475	33.61	36.55
5	182032	33.71	36.55
5	182589	33.81	36.55
5	183146	33.91	36.55
5	183711	34.01	36.55
5	184268	34.11	36.55
5	184825	34.21	36.55
5	185382	34.31	36.55
5	185939	34.41	36.55
5	186496	34.51	36.55
5	187053	34.61	36.55
5	187610	34.71	36.55
5	188167	34.81	36.55
5	188724	34.91	36.55
5	189289	35.01	36.55
5	189846	35.11	36.55
5	190403	35.21	36.55
5	190960	35.31	36.55
5	191517	35.41	36.55
5	192074	35.51	36.55
5	192631	35.61	36.55
5	193188	35.71	36.55
5	193745	35.81	36.55
5	194302	35.91	36.55
5	194867	36.01	36.55
5	195424	36.11	36.55
5	195981	36.21	36.55
5	196538	36.31	36.55
5	197095	36.41	36.55
5	197652	36.51	36.55
5	198209	36.61	36.55
5	198766	36.71	36.55
5	199323	36.81	36.55
5	199880	36.91	36.55
5	200445	37.01	36.55
5	201002	37.11	36.55
5	201559	37.21	36.55
5	202116	37.31	36.55
5	202673	37.41	36.55
5	203230	37.51	36.55
5	203787	37.61	36.55
5	204344	37.71	36.55
5	204901	37.81	36.55
5	205458	37.91	36.55
5	206023	38.01	36.55
5	206580	38.11	36.55
5	207137	38.21	36.55
5	207694	38.31	36.55
5	208251	38.41	36.55
5	208808	38.51	36.55
5	209365	38.61	36.55
5	209922	38.71	36.55
5	210479	38.81	36.55
5	211036	38.91	36.55
5	211601	39.01	36.55
5	212158	39.11	36.55
5	212715	39.21	36.55
5	213272	39.31	36.55
5	213829	39.41	36.55
5	214386	39.51	36.55
5	214943	39.61	36.55
5	215500	39.71	36.55
5	216057	39.81	36.55
5	216614	39.91	36.55
5	217179	40.01	36.55
5	217736	40.11	36.55
5	218293	40.21	36.55
5	218850	40.31	36.55
5	219407	40.41	36.55
5	219964	40.51	36.55
5	220521	40.61	36.55
5	221078	40.71	36.55
5	221635	40.81	36.55
5	222192	40.91	36.55
5	222757	41.01	36.55
5	223314	41.11	36.55
5	223871	41.21	36.55
5	224428	41.31	36.55
5	224985	41.41	36.55
5	225542	41.51	36.55
5	226099	41.61	36.55
5	226656	41.71	36.55
5	227213	41.81	36.55
5	227770	41.91	36.55
5	228335	42.01	36.55
5	228892	42.11	36.55
5	229449	42.21	36.55
5	230006	42.31	36.55
5	230563	42.41	36.55
5	231120	42.51	36.55
5	231677	42.61	36.55
5	232234	42.71	36.55
5	232791	42.81	36.55
5	233348	42.91	36.55
5	233913	43.01	36.55
5	234470	43.11	36.55
5	235027	43.21	36.55
5	235584	43.31	36.55
5	236141	43.41	36.55
5	236698	43.51	36.55
5	237255	43.61	36.55
5	237812	43.71	36.55
5	238369	43.81	36.55
5	238926	43.91	36.55
5	239491	44.01	36.55
5	240048	44.11	36.55
5	240605	44.21	36.55
5	241162	44.31	36.55
5	241719	44.41	36.55
5	242276	44.51	36.55
5	242833	44.61	36.55
5	243390	44.71	36.55
5	243947	44.81	36.55
5	244504	44.91	36.55
5	245069	45.01	36.55
4	232	1.11	115.22663612406
4	788	1.21	118.55996933287
4	1344	1.31	121.89330254577
4	1900	1.41	125.22663576416
4	2456	1.51	128.55996898913
4	3012	1.61	131.89330222144
4	3568	1.71	135.22663546158
4	4124	1.81	138.55996870981
4	4680	1.91	141.89330196621
4	5244	2.01	145.2266352307
4	5800	2.11	148.55996850304
4	6356	2.21	151.89330178294
4	6912	2.31	155.22663506997
4	7468	2.41	158.55996836371
4	8024	2.51	161.89330166364
4	8580	2.61	165.22663496926
4	9136	2.71	168.55996828005
4	9692	2.81	171.89330159547
4	10248	2.91	175.22663491502
4	10812	3.01	178.5599682382
4	11368	3.11	181.89330156455
4	11924	3.21	185.22663489361
4	12480	3.31	188.55996822498
4	13036	3.41	191.89330155828
4	13592	3.51	195.22663489316
4	14148	3.61	198.55996822932
4	14704	3.71	201.89330156646
4	15260	3.81	205.22663490435
4	15816	3.91	208.55996824277
4	16380	4.01	211.89330158153
4	16936	4.11	215.22663492047
4	17492	4.21	218.55996825947
4	18048	4.31	221.89330159841
4	18604	4.41	225.22663493719
4	19160	4.51	228.55996827576
4	19716	4.61	231.89330161405
4	20272	4.71	235.22663495202
4	20828	4.81	238.55996828966
4	21384	4.91	241.89330162693
4	21949	5.01	245.22663496385
4	22506	5.11	248.55996966568
4	23063	5.21	251.89353086887
4	23620	5.31	255.2280921651
4	24177	5.41	258.56487818204
4	24734	5.51	261.90543890341
4	25291	5.61	265.25150919168
4	25848	5.71	268.60477453142
4	26405	5.81	271.96663696309
4	26962	5.91	275.33824678002
4	27527	6.01	278.72054762338
4	28084	6.11	282.11431360759
4	28641	6.21	285.52017977612
4	29198	6.31	288.93866708577
4	29755	6.41	292.37020290259
4	30312	6.51	295.81513778391
4	30869	6.61	299.27372947965
4	31426	6.71	302.74593155687
4	31983	6.81	306.23121749902
4	32540	6.91	309.72859852978
4	33105	7.01	313.23665993632
4	33662	7.11	316.75360460418
4	34219	7.21	320.27730260738
4	34776	7.31	323.80534568659
4	35333	7.41	327.33510590486
4	35890	7.51	330.86387033494
4	36447	7.61	334.38914117047
4	37004	7.71	337.90885126617
4	37561	7.81	341.42130484288
4	38118	7.91	344.92511077108
4	38683	8.01	348.41912784003
4	39240	8.11	351.90241985944
4	39797	8.21	355.37421882717
4	40354	8.31	358.83389471401
4	40911	8.41	362.28093067655
4	41468	8.51	365.71490272317
4	42025	8.61	369.13546303308
4	42582	8.71	372.54232627207
4	43139	8.81	375.93525836673
4	43696	8.91	379.31406729531
4	44261	9.01	382.67859553311
4	44818	9.11	386.02871385501
4	45375	9.21	389.36431625139
4	45932	9.31	392.68531575745
4	46489	9.41	395.99164103177
4	47046	9.51	399.28323581232
4	47603	9.61	402.56029539949
4	48160	9.71	405.8236811146
4	48717	9.81	409.07488472005
4	49274	9.91	412.31592332888
4	49839	10.01	415.5492347806
4	50396	10.11	418.77757479205
4	50953	10.21	422.00391612248
4	51510	10.31	425.23118698581
4	52067	10.41	428.4619086912
4	52624	10.51	431.69815606449
4	53181	10.61	434.94163118556
4	53738	10.71	438.19373035274
4	54295	10.81	441.45559901698
4	54852	10.91	444.72817684702
4	55417	11.01	448.01223469853
4	55974	11.11	451.30840494163
4	56531	11.21	454.61720634008
4	57088	11.31	457.93906446085
4	57645	11.41	461.27432841708
4	58202	11.51	464.62328460315
4	58759	11.61	467.98616796217
4	59316	11.71	471.36317122936
4	59873	11.81	474.75445251471
4	60430	11.91	478.16012672408
4	60995	12.01	481.57998882769
4	61552	12.11	485.01319350958
4	62109	12.21	488.45831166841
4	62666	12.31	491.91341741355
4	63223	12.41	495.37617685626
4	63780	12.51	498.84393733293
4	64337	12.61	502.31381663537
4	64894	12.71	505.78292601445
4	65451	12.81	509.24871969574
4	66008	12.91	512.70909857447
4	66573	13.01	516.16234065363
4	67130	13.11	519.60703329589
4	67687	13.21	523.04201764664
4	68244	13.31	526.46634304143
4	68801	13.41	529.87922960433
4	69358	13.51	533.28003756544
4	69915	13.61	536.66824209059
4	70472	13.71	540.04341263299
4	71029	13.81	543.40519599429
4	71586	13.91	546.75330242884
4	72151	14.01	550.08749424427
4	72708	14.11	553.40757645006
4	73265	14.21	556.71338908608
4	73822	14.31	560.00480092929
4	74379	14.41	563.28170511216
4	74936	14.51	566.54416817253
4	75493	14.61	569.79280541643
4	76050	14.71	573.02886057847
4	76607	14.81	576.25411947601
4	77164	14.91	579.47081559324
4	77729	15.01	582.68153553225
4	78286	15.11	585.88912521143
4	78843	15.21	589.09652750452
4	79400	15.31	592.30645156475
4	79957	15.41	595.52113912786
4	80514	15.51	598.74242919797
4	81071	15.61	601.97183039897
4	81628	15.71	605.2105803279
4	82185	15.81	608.45969424541
4	82742	15.91	611.72000501882
4	83307	16.01	614.99219588944
4	83864	16.11	618.27682735311
4	84421	16.21	621.57435921164
4	84978	16.31	624.88516866266
4	85535	16.41	628.20956513961
4	86092	16.51	631.54780248568
4	86649	16.61	634.90008894072
4	87206	16.71	638.26659533389
4	87763	16.81	641.64746180466
4	88320	16.91	645.04280230169
4	88885	17.01	648.452520321
4	89442	17.11	651.87591749234
4	89999	17.21	655.31168015444
4	90556	17.31	658.75796901049
4	91113	17.41	662.21251154844
4	91670	17.51	665.6726946937
4	92227	17.61	669.13565697888
4	92784	17.71	672.59847275889
4	93341	17.81	676.05848976957
4	93898	17.91	679.51351603908
4	94463	18.01	682.96175338705
4	95020	18.11	686.40172667929
4	95577	18.21	689.83222579195
4	96134	18.31	693.25225800199
4	96691	18.41	696.66100893078
4	97248	18.51	700.05781050415
4	97805	18.61	703.44211466863
4	98362	18.71	706.81347182947
4	98919	18.81	710.17151316238
4	99476	18.91	713.51593610298
4	100041	19.01	716.84649244311
4	100598	19.11	720.16297856562
4	101155	19.21	723.46522743351
4	101712	19.31	726.75310201829
4	102269	19.41	730.02649082757
4	102826	19.51	733.28547902728
4	103383	19.61	736.53073415438
4	103940	19.71	739.76354394305
4	104497	19.81	742.98572785302
4	105054	19.91	746.19954391092
4	105619	20.01	749.407595356
4	106176	20.11	752.6127378665
4	106733	20.21	755.81790343441
4	107290	20.31	759.02576535584
4	107847	20.41	762.2385340018
4	108404	20.51	765.45802264639
4	108961	20.61	768.68571880593
4	109518	20.71	771.92284276192
4	110075	20.81	775.17039557019
4	110632	20.91	778.4291984452
4	111197	21.01	781.69992506884
4	111754	21.11	784.98312809489
4	112311	21.21	788.27926089195
4	112868	21.31	791.58869538019
4	113425	21.41	794.91173666366
4	113982	21.51	798.24863503398
4	114539	21.61	801.59959581743
4	115096	21.71	804.96478745309
4	115653	21.81	808.34434811967
4	116210	21.91	811.73839022317
4	116775	22.01	815.14682447139
4	117332	22.11	818.5689719046
4	117889	22.21	822.00353516258
4	118446	22.31	825.44868741826
4	119003	22.41	828.9021652627
4	119560	22.51	832.36136179932
4	120117	22.61	835.82341919363
4	120674	22.71	839.28540779832
4	121231	22.81	842.74466210833
4	121788	22.91	846.19897856886
4	122353	23.01	849.64654949746
4	122910	23.11	853.0858919649
4	123467	23.21	856.51578945272
4	124024	23.31	859.93524399206
4	124581	23.41	863.34343690088
4	125138	23.51	866.73969657473
4	125695	23.61	870.12347206407
4	126252	23.71	873.49431139836
4	126809	23.81	876.85184380436
4	127366	23.91	880.19576511885
4	127931	24.01	883.52582582206
4	128488	24.11	886.84182122086
4	129045	24.21	890.14358339562
4	129602	24.31	893.43097459371
4	130159	24.41	896.70388274759
4	130716	24.51	899.96239561783
4	131273	24.61	903.20718792505
4	131830	24.71	906.43955345715
4	132387	24.81	909.66131630702
4	132944	24.91	912.87473788611
4	133509	25.01	916.0824237336
4	134066	25.11	919.28723088362
4	134623	25.21	922.49208985342
4	135180	25.31	925.69966903906
4	135737	25.41	928.91217452465
4	136294	25.51	932.13141606753
4	136851	25.61	935.35887829904
4	137408	25.71	938.59577913402
4	137965	25.81	941.84311768679
4	138522	25.91	945.10171357912
4	139087	26.01	948.37223918631
4	139644	26.11	951.65524609031
4	140201	26.21	954.95118678044
4	140758	26.31	958.26043245551
4	141315	26.41	961.58328762788
4	141872	26.51	964.92000210372
4	142429	26.61	968.2707808111
4	142986	26.71	971.6357918624
4	143543	26.81	975.01517316836
4	144100	26.91	978.40903692212
4	144665	27.01	981.8172947947
4	145222	27.11	985.23927049233
4	145779	27.21	988.67366890142
4	146336	27.31	992.1186649144
4	146893	27.41	995.57199637855
4	147450	27.51	999.03105725096
4	148007	27.61	1002.4929902005
4	148564	27.71	1005.9548650327
4	149121	27.81	1009.4140144243
4	149678	27.91	1012.86823323
4	150243	28.01	1016.3157124624
4	150800	28.11	1019.7549681217
4	151357	28.21	1023.1847828113
4	151914	28.31	1026.6041578421
4	152471	28.41	1030.0122739409
4	153028	28.51	1033.4084590185
4	153585	28.61	1036.7921617276
4	154142	28.71	1040.1629297716
4	154699	28.81	1043.5203921094
4	155256	28.91	1046.8642443583
4	155821	29.01	1050.1942368184
4	156378	29.11	1053.5101646488
4	156935	29.21	1056.8118598087
4	157492	29.31	1060.099184446
4	158049	29.41	1063.3720264142
4	158606	29.51	1066.6304738312
4	159163	29.61	1069.8752024072
4	159720	29.71	1073.1075067636
4	160277	29.81	1076.3292116316
4	160834	29.91	1079.5425788888
4	161399	30.01	1082.750214391
4	161956	30.11	1085.9549753593
4	162513	30.21	1089.1597921079
4	163070	30.31	1092.3673323582
4	163627	30.41	1095.5798016038
4	164184	30.51	1098.799009118
4	164741	30.61	1102.0264391348
4	165298	30.71	1105.2633092432
4	165855	30.81	1108.5106182901
4	166412	30.91	1111.769185678
4	166977	31.01	1115.0396836023
4	167534	31.11	1118.3226634974
4	168091	31.21	1121.6185777315
4	168648	31.31	1124.927797404
4	169205	31.41	1128.250626946
4	169762	31.51	1131.5873160966
4	170319	31.61	1134.9380697291
4	170876	31.71	1138.303055911
4	171433	31.81	1141.6824125161
4	171990	31.91	1145.0762517081
4	172555	32.01	1148.4844852908
4	173112	32.11	1151.9064373376
4	173669	32.21	1155.3408130442
4	174226	32.31	1158.7857875399
4	174783	32.41	1162.239098845
4	175340	32.51	1165.6981410341
4	175897	32.61	1169.1600568455
4	176454	32.71	1172.6219160093
4	177011	32.81	1176.0810509519
4	177568	32.91	1179.5352563088
4	178133	33.01	1182.982722913
4	178690	33.11	1186.4219666173
4	179247	33.21	1189.8517699042
4	179804	33.31	1193.2711339853
4	180361	33.41	1196.679239506
4	180918	33.51	1200.0754143104
4	181475	33.61	1203.4591069965
4	182032	33.71	1206.8298652225
4	182589	33.81	1210.1873179107
4	183146	33.91	1213.531160648
4	183711	34.01	1216.8611437099
4	184268	34.11	1220.177062235
4	184825	34.21	1223.4787481657
4	185382	34.31	1226.7660636364
4	185939	34.41	1230.0388964896
4	186496	34.51	1233.2973348927
4	187053	34.61	1236.5420546917
4	187610	34.71	1239.7743506232
4	188167	34.81	1242.9960475061
4	188724	34.91	1246.2094072821
4	189289	35.01	1249.4170358509
4	189846	35.11	1252.6217904592
4	190403	35.21	1255.8266013932
4	190960	35.31	1259.0341362814
4	191517	35.41	1262.2466005362
4	192074	35.51	1265.465803364
4	192631	35.61	1268.6932289443
4	193188	35.71	1271.930094821
4	193745	35.81	1275.1773998045
4	194302	35.91	1278.4359632668
4	194867	36.01	1281.7064573787
4	195424	36.11	1284.9894335542
4	195981	36.21	1288.2853441448
4	196538	36.31	1291.5945602364
4	197095	36.41	1294.9173862485
4	197652	36.51	1298.2540719114
4	198209	36.61	1301.6048220907
4	198766	36.71	1304.9698048477
4	199323	36.81	1308.349158051
4	199880	36.91	1311.7429938604
4	200445	37.01	1315.151224098
4	201002	37.11	1318.5731728876
4	201559	37.21	1322.0075454677
4	202116	37.31	1325.4525170001
4	202673	37.41	1328.905825529
4	203230	37.51	1332.3648651451
4	203787	37.61	1335.8267785962
4	204344	37.71	1339.2886356022
4	204901	37.81	1342.7477685549
4	205458	37.91	1346.2019720597
4	206023	38.01	1349.6494369248
4	206580	38.11	1353.0886789827
4	207137	38.21	1356.5184806992
4	207694	38.31	1359.9378432723
4	208251	38.41	1363.3459473362
4	208808	38.51	1366.7421207258
4	209365	38.61	1370.1258120315
4	209922	38.71	1373.4965689055
4	210479	38.81	1376.8540202647
4	211036	38.91	1380.1978616922
4	211601	39.01	1383.5278434597
4	212158	39.11	1386.8437607033
4	212715	39.21	1390.145445363
4	213272	39.31	1393.4327595713
4	213829	39.41	1396.7055911693
4	214386	39.51	1399.9640283309
4	214943	39.61	1403.2087469212
4	215500	39.71	1406.4410416924
4	216057	39.81	1409.6627374756
4	216614	39.91	1412.8760962214
4	217179	40.01	1416.0837238354
4	217736	40.11	1419.2884775678
4	218293	40.21	1422.493287701
4	218850	40.31	1425.7008218507
4	219407	40.41	1428.9132854181
4	219964	40.51	1432.1324876006
4	220521	40.61	1435.3599125698
4	221078	40.71	1438.5967778638
4	221635	40.81	1441.8440822877
4	222192	40.91	1445.1026452094
4	222757	41.01	1448.3731387963
4	223314	41.11	1451.6561144595
4	223871	41.21	1454.9520245483
4	224428	41.31	1458.2612401467
4	224985	41.41	1461.5840656728
4	225542	41.51	1464.9207508554
4	226099	41.61	1468.2715005591
4	226656	41.71	1471.6364828443
4	227213	41.81	1475.0158355792
4	227770	41.91	1478.4096709228
4	228335	42.01	1481.8179006997
4	228892	42.11	1485.2398490407
4	229449	42.21	1488.6742211902
4	230006	42.31	1492.1191923145
4	230563	42.41	1495.572500461
4	231120	42.51	1499.0315397228
4	231677	42.61	1502.4934528489
4	232234	42.71	1505.9553095577
4	232791	42.81	1509.4144422364
4	233348	42.91	1512.8686454861
4	233913	43.01	1516.3161101117
4	234470	43.11	1519.7553519428
4	235027	43.21	1523.1851534431
4	235584	43.31	1526.6045158085
4	236141	43.41	1530.0126196718
4	236698	43.51	1533.4087928666
4	237255	43.61	1536.7924839822
4	237812	43.71	1540.1632406699
4	238369	43.81	1543.5206918462
4	238926	43.91	1546.8645330932
4	239491	44.01	1550.1945146825
4	240048	44.11	1553.5104317496
4	240605	44.21	1556.8121162343
4	241162	44.31	1560.0994302687
4	241719	44.41	1563.3722616938
4	242276	44.51	1566.6306986845
4	242833	44.61	1569.8754171083
4	243390	44.71	1573.1077117198
4	243947	44.81	1576.3294073515
4	244504	44.91	1579.5427659554
4	245069	45.01	1582.7503934378
3	232	1.11	33.333332070582
3	788	1.21	33.333332100049
3	1344	1.31	33.333332146342
3	1900	1.41	33.333332205608
3	2456	1.51	33.333332274454
3	3012	1.61	33.333332349923
3	3568	1.71	33.333332429473
3	4124	1.81	33.333332510943
3	4680	1.91	33.333332592527
3	5244	2.01	33.333332672741
3	5800	2.11	33.333332750393
3	6356	2.21	33.33333282455
3	6912	2.31	33.33333289451
3	7468	2.41	33.333332959772
3	8024	2.51	33.33333302001
3	8580	2.61	33.333333075046
3	9136	2.71	33.333333124827
3	9692	2.81	33.333333169405
3	10248	2.91	33.333333208914
3	10812	3.01	33.333333243557
3	11368	3.11	33.333333273586
3	11924	3.21	33.333333299293
3	12480	3.31	33.333333320991
3	13036	3.41	33.333333339013
3	13592	3.51	33.333333353695
3	14148	3.61	33.333333365375
3	14704	3.71	33.333333374381
3	15260	3.81	33.333333381033
3	15816	3.91	33.333333385635
3	16380	4.01	33.333333388471
3	16936	4.11	33.33333338981
3	17492	4.21	33.333333389894
3	18048	4.31	33.33333338895
3	18604	4.41	33.333333387177
3	19160	4.51	33.333333384757
3	19716	4.61	33.333333381849
3	20272	4.71	33.333333378594
3	20828	4.81	33.333333375112
3	21384	4.91	33.333333371506
3	21949	5.01	33.333333367863
3	22506	5.11	33.333401628544
3	23063	5.21	33.337615197889
3	23620	5.31	33.351331457648
3	24177	5.41	33.378611875711
3	24734	5.51	33.422277525915
3	25291	5.61	33.483619363034
3	25848	5.71	33.560883289289
3	26405	5.81	33.651214374853
3	26962	5.91	33.75226508234
3	27527	6.01	33.862109613447
3	28084	6.11	33.97916814281
3	28641	6.21	34.102144663378
3	29198	6.31	34.229975997969
3	29755	6.41	34.36178997099
3	30312	6.51	34.49686951103
3	30869	6.61	34.63394454499
3	31426	6.71	34.768907460539
3	31983	6.81	34.896940693623
3	32540	6.91	35.013537294543
3	33105	7.01	35.114580456764
3	33662	7.11	35.196411611993
3	34219	7.21	35.255886909516
3	34776	7.31	35.290421999417
3	35333	7.41	35.298048086563
3	35890	7.51	35.278759124112
3	36447	7.61	35.23598770154
3	37004	7.71	35.17395248273
3	37561	7.81	35.096114241429
3	38118	7.91	35.005312017494
3	38683	8.01	34.903874812445
3	39240	8.11	34.79371321872
3	39797	8.21	34.676394587578
3	40354	8.31	34.553204692958
3	40911	8.41	34.425198317326
3	41468	8.51	34.293240749685
3	42025	8.61	34.158041828395
3	42582	8.71	34.020183868152
3	43139	8.81	33.880144569824
3	43696	8.91	33.738315814505
3	44261	9.01	33.595019081188
3	44818	9.11	33.450518094614
3	45375	9.21	33.30502920093
3	45932	9.31	33.158729879327
3	46489	9.41	33.011765724558
3	47046	9.51	32.864353863035
3	47603	9.61	32.721012496936
3	48160	9.71	32.588643994693
3	48717	9.81	32.473185082585
3	49274	9.91	32.37952165218
3	49839	10.01	32.31149760861
3	50396	10.11	32.271937243073
3	50953	10.21	32.262628456892
3	51510	10.31	32.281431757463
3	52067	10.41	32.323804768138
3	52624	10.51	32.385513150424
3	53181	10.61	32.463083271939
3	53738	10.71	32.553665544264
3	54295	10.81	32.654922312383
3	54852	10.91	32.764935884979
3	55417	11.01	32.88213308724
3	55974	11.11	33.005223367884
3	56531	11.21	33.13314802536
3	57088	11.31	33.265038555652
3	57645	11.41	33.400182482965
3	58202	11.51	33.537995328993
3	58759	11.61	33.677997617952
3	59316	11.71	33.819796012697
3	59873	11.81	33.96306783977
3	60430	11.91	34.107141747152
3	60995	12.01	34.246982852793
3	61552	12.11	34.376202942323
3	62109	12.21	34.489264817717
3	62666	12.31	34.581509590607
3	63223	12.41	34.649169726167
3	63780	12.51	34.689368787218
3	64337	12.61	34.7001510107
3	64894	12.71	34.682882928545
3	65451	12.81	34.641769331689
3	66008	12.91	34.581094107388
3	66573	13.01	34.504371535269
3	67130	13.11	34.414484548651
3	67687	13.21	34.313798156979
3	68244	13.31	34.204252491731
3	68801	13.41	34.087439136468
3	69358	13.51	33.964663744057
3	69915	13.61	33.836997404607
3	70472	13.71	33.705318785069
3	71029	13.81	33.570348698382
3	71586	13.91	33.432678462216
3	72151	14.01	33.292793163015
3	72708	14.11	33.151090740619
3	73265	14.21	33.0078976443
3	73822	14.31	32.863481676162
3	74379	14.41	32.718101580034
3	74936	14.51	32.574886427257
3	75493	14.61	32.440114751869
3	76050	14.71	32.319814522883
3	76607	14.81	32.219077485442
3	77164	14.91	32.142048757657
3	77729	15.01	32.091930244201
3	78286	15.11	32.070975264143
3	78843	15.21	32.079224413257
3	79400	15.31	32.112939343728
3	79957	15.41	32.167545084638
3	80514	15.51	32.239288566376
3	81071	15.61	32.325090964666
3	81628	15.71	32.422426571247
3	82185	15.81	32.529223425642
3	82742	15.91	32.643781798595
3	83307	16.01	32.764707320103
3	83864	16.11	32.890856121102
3	84421	16.21	33.021289830551
3	84978	16.31	33.155238657363
3	85535	16.41	33.292071104728
3	86092	16.51	33.43126912531
3	86649	16.61	33.572407739859
3	87206	16.71	33.715138317369
3	87763	16.81	33.859174858989
3	88320	16.91	34.00423217336
3	88885	17.01	34.146527003479
3	89442	17.11	34.279561763556
3	89999	17.21	34.397486339902
3	90556	17.31	34.49536634699
3	91113	17.41	34.569194390325
3	91670	17.51	34.615887710296
3	92227	17.61	34.633302198405
3	92784	17.71	34.621906345921
3	93341	17.81	34.585610022692
3	93898	17.91	34.528886640621
3	94463	18.01	34.455405955556
3	95020	18.11	34.368178445471
3	95577	18.21	34.269673750852
3	96134	18.31	34.161917837073
3	96691	18.41	34.046572701384
3	97248	18.51	33.925001760404
3	97805	18.61	33.798323490638
3	98362	18.71	33.667455432386
3	98919	18.81	33.533150288272
3	99476	18.91	33.396025536615
3	100041	19.01	33.256587724703
3	100598	19.11	33.115252397745
3	101155	19.21	32.972360447543
3	101712	19.31	32.828191524111
3	102269	19.41	32.683020974216
3	102826	19.51	32.540389451904
3	103383	19.61	32.406715289624
3	103940	19.71	32.287914451662
3	104497	19.81	32.188979592244
3	105054	19.91	32.113969109672
3	105619	20.01	32.066009892824
3	106176	20.11	32.047286503659
3	106733	20.21	32.057518927939
3	107290	20.31	32.092860834819
3	107847	20.41	32.148801263061
3	108404	20.51	32.221639653283
3	108961	20.61	32.308340257886
3	109518	20.71	32.406412706488
3	110075	20.81	32.513814027983
3	110632	20.91	32.628868274494
3	111197	21.01	32.750200585031
3	111754	21.11	32.87668309472
3	112311	21.21	33.007390561525
3	112868	21.31	33.141563964718
3	113425	21.41	33.278580642935
3	113982	21.51	33.417929796984
3	114539	21.61	33.559192393615
3	115096	21.71	33.702024679617
3	115653	21.81	33.846144657624
3	116210	21.91	33.99127355855
3	116775	22.01	34.133781378533
3	117332	22.11	34.267219468202
3	117889	22.21	34.385696284949
3	118446	22.31	34.484240786262
3	119003	22.41	34.558813492781
3	119560	22.51	34.606303886233
3	120117	22.61	34.624542412731
3	120674	22.71	34.61387898274
3	121231	22.81	34.578183501056
3	121788	22.91	34.521953018326
3	122353	23.01	34.448876682398
3	122910	23.11	34.361980879439
3	123467	23.21	34.263748300197
3	124024	23.31	34.156215615805
3	124581	23.41	34.041053605964
3	125138	23.51	33.919632891962
3	125695	23.61	33.793077860643
3	126252	23.71	33.66231090084
3	126809	23.81	33.528088692668
3	127366	23.91	33.391031977369
3	127931	24.01	33.251649978969
3	128488	24.11	33.110360438529
3	129045	24.21	32.967506049221
3	129602	24.31	32.823367938803
3	130159	24.41	32.67822360761
3	130716	24.51	32.535669905051
3	131273	24.61	32.402144231196
3	131830	24.71	32.283547191314
3	132387	24.81	32.184857847866
3	132944	24.91	32.110122700925
3	133509	25.01	32.062458343834
3	134066	25.11	32.044039899942
3	134623	25.21	32.054543396576
3	135180	25.31	32.090107677201
3	135737	25.41	32.146230529366
3	136294	25.51	32.219218570743
3	136851	25.61	32.306041941417
3	137408	25.71	32.404215100957
3	137965	25.81	32.511699040498
3	138522	25.91	32.626821062583
3	139087	26.01	32.748208972697
3	139644	26.11	32.874737093404
3	140201	26.21	33.00548197713
3	140758	26.31	33.139686075231
3	141315	26.41	33.276727933964
3	141872	26.51	33.416097744805
3	142429	26.61	33.557377287201
3	142986	26.71	33.700223474632
3	143543	26.81	33.844354856653
3	144100	26.91	33.989493462117
3	144665	27.01	34.132030137959
3	145222	27.11	34.265523309485
3	145779	27.21	34.384075734601
3	146336	27.31	34.482711327072
3	146893	27.41	34.557386192231
3	147450	27.51	34.604985991209
3	148007	27.61	34.623337667502
3	148564	27.71	34.612774819361
3	149121	27.81	34.577161849829
3	149678	27.91	34.520999055801
3	150243	28.01	34.447978248185
3	150800	28.11	34.361127997782
3	151357	28.21	34.262932787503
3	151914	28.31	34.155430758675
3	152471	28.41	34.040293897074
3	153028	28.51	33.918893813388
3	153585	28.61	33.792355706113
3	154142	28.71	33.661602629922
3	154699	28.81	33.527391811146
3	155256	28.91	33.39034443912
3	155821	29.01	33.250970105458
3	156378	29.11	33.109686852772
3	156935	29.21	32.966837621612
3	157492	29.31	32.822703742673
3	158049	29.41	32.677563012382
3	158606	29.51	32.53502001788
3	159163	29.61	32.401514784645
3	159720	29.71	32.282945802856
3	160277	29.81	32.184290263234
3	160834	29.91	32.109593027321
3	161399	30.01	32.061969270629
3	161956	30.11	32.043592816673
3	162513	30.21	32.054133639286
3	163070	30.31	32.089728540214
3	163627	30.41	32.145876511694
3	164184	30.51	32.218885159657
3	164741	30.61	32.305725434909
3	165298	30.71	32.403912462091
3	165855	30.81	32.511407777928
3	166412	30.91	32.626539132538
3	166977	31.01	32.747934698574
3	167534	31.11	32.874469099802
3	168091	31.21	33.005219135744
3	168648	31.31	33.139427460457
3	169205	31.41	33.276472786482
3	169762	31.51	33.415845441712
3	170319	31.61	33.557127317498
3	170876	31.71	33.69997541912
3	171433	31.81	33.844108371445
3	171990	31.91	33.989248313206
3	172555	32.01	34.131788962834
3	173112	32.11	34.265289719931
3	173669	32.21	34.383852557486
3	174226	32.31	34.482500694658
3	174783	32.41	34.557189628713
3	175340	32.51	34.604804494622
3	175897	32.61	34.623171753508
3	176454	32.71	34.612622757152
3	177011	32.81	34.577021150908
3	177568	32.91	34.520867678733
3	178133	33.01	34.447854518284
3	178690	33.11	34.361010541222
3	179247	33.21	34.262820477267
3	179804	33.31	34.155322670218
3	180361	33.41	34.040189271946
3	180918	33.51	33.918792029396
3	181475	33.61	33.792256252841
3	182032	33.71	33.661505088653
3	182589	33.81	33.527295838386
3	183146	33.91	33.390249753082
3	183711	34.01	33.250876474981
3	184268	34.11	33.109594088223
3	184825	34.21	32.966745567426
3	185382	34.31	32.822612271231
3	185939	34.41	32.677472036844
3	186496	34.51	32.534930517026
3	187053	34.61	32.40142809882
3	187610	34.71	32.28286298112
3	188167	34.81	32.184212096876
3	188724	34.91	32.109520081976
3	189289	35.01	32.061901916669
3	189846	35.11	32.043531245463
3	190403	35.21	32.054077208517
3	190960	35.31	32.089676326398
3	191517	35.41	32.145827757247
3	192074	35.51	32.218839243098
3	192631	35.61	32.305681846407
3	193188	35.71	32.403870783406
3	193745	35.81	32.511367665959
3	194302	35.91	32.626500305822
3	194867	36.01	32.747896926212
3	195424	36.11	32.874432192378
3	195981	36.21	33.005182937871
3	196538	36.31	33.139391844662
3	197095	36.41	33.276437648195
3	197652	36.51	33.415810695147
3	198209	36.61	33.557092892281
3	198766	36.71	33.699941257521
3	199323	36.81	33.844074426105
3	199880	36.91	33.989214551897
3	200445	37.01	34.131755748785
3	201002	37.11	34.265257550548
3	201559	37.21	34.383821822079
3	202116	37.31	34.482471686876
3	202673	37.41	34.557162558465
3	203230	37.51	34.604779499354
3	203787	37.61	34.623148904237
3	204344	37.71	34.612601815515
3	204901	37.81	34.577001774195
3	205458	37.91	34.520849585803
3	206023	38.01	34.447837478503
3	206580	38.11	34.36099436539
3	207137	38.21	34.262805010174
3	207694	38.31	34.155307784537
3	208251	38.41	34.040174863226
3	208808	38.51	33.91877801195
3	209365	38.61	33.792242556377
3	209922	38.71	33.661491655505
3	210479	38.81	33.527282621248
3	211036	38.91	33.390236713149
3	211601	39.01	33.250863580417
3	212158	39.11	33.109581312913
3	212715	39.21	32.966732889944
3	213272	39.31	32.822599674004
3	213829	39.41	32.677459507911
3	214386	39.51	32.534918191183
3	214943	39.61	32.401416160656
3	215500	39.71	32.282851575109
3	216057	39.81	32.184201331992
3	216614	39.91	32.109510036116
3	217179	40.01	32.061892640842
3	217736	40.11	32.043522766022
3	218293	40.21	32.054069437006
3	218850	40.31	32.089669135635
3	219407	40.41	32.1458210429
3	219964	40.51	32.218832919578
3	220521	40.61	32.305675843501
3	221078	40.71	32.403865043516
3	221635	40.81	32.511362141833
3	222192	40.91	32.626494958697
3	222757	41.01	32.747891724291
3	223314	41.11	32.874427109574
3	223871	41.21	33.005177952785
3	224428	41.31	33.139386939738
3	224985	41.41	33.276432809032
3	225542	41.51	33.415805909931
3	226099	41.61	33.557088151321
3	226656	41.71	33.699936552866
3	227213	41.81	33.844069751233
3	227770	41.91	33.98920990237
3	228335	42.01	34.131751174625
3	228892	42.11	34.265253120257
3	229449	42.21	34.383817589272
3	230006	42.31	34.482467691993
3	230563	42.41	34.557158830415
3	231120	42.51	34.604776057066
3	231677	42.61	34.623145757491
3	232234	42.71	34.612598931484
3	232791	42.81	34.576999105681
3	233348	42.91	34.520847094089
3	233913	43.01	34.447835131826
3	234470	43.11	34.360992137695
3	235027	43.21	34.262802880084
3	235584	43.31	34.155305734519
3	236141	43.41	34.040172878894
3	236698	43.51	33.918776081503
3	237255	43.61	33.792240670135
3	237812	43.71	33.661489805526
3	238369	43.81	33.527280801018
3	238926	43.91	33.390234917324
3	239491	44.01	33.250861804611
3	240048	44.11	33.10957955353
3	240605	44.21	32.966731144035
3	241162	44.31	32.822597939147
3	241719	44.41	32.67745778246
3	242276	44.51	32.5349164937
3	242833	44.61	32.401414516564
3	243390	44.71	32.282850004303
3	243947	44.81	32.184199849481
3	244504	44.91	32.109508652628
3	245069	45.01	32.0618913634
1	232	1.11	0
1	788	1.21	0
1	1344	1.31	0
1	1900	1.41	0
1	2456	1.51	0
1	3012	1.61	0
1	3568	1.71	0
1	4124	1.81	0
1	4680	1.91	0
1	5244	2.01	0
1	5800	2.11	0
1	6356	2.21	0
1	6912	2.31	0
1	7468	2.41	0
1	8024	2.51	0
1	8580	2.61	0
1	9136	2.71	0
1	9692	2.81	0
1	10248	2.91	0
1	10812	3.01	0
1	11368	3.11	0
1	11924	3.21	0
1	12480	3.31	0
1	13036	3.41	0
1	13592	3.51	0
1	14148	3.61	0
1	14704	3.71	0
1	15260	3.81	0
1	15816	3.91	0
1	16380	4.01	0
1	16936	4.11	0
1	17492	4.21	0
1	18048	4.31	0
1	18604	4.41	0
1	19160	4.51	0
1	19716	4.61	0
1	20272	4.71	0
1	20828	4.81	0
1	21384	4.91	0
1	21949	5.01	0
1	22506	5.11	0
1	23063	5.21	0
1	23620	5.31	0
1	24177	5.41	0
1	24734	5.51	0
1	25291	5.61	0
1	25848	5.71	0
1	26405	5.81	0
1	26962	5.91	0
1	27527	6.01	0
1	28084	6.11	0
1	28641	6.21	0
1	29198	6.31	0
1	29755	6.41	0
1	30312	6.51	0
1	30869	6.61	0
1	31426	6.71	0
1	31983	6.81	0
1	32540	6.91	0
1	33105	7.01	0
1	33662	7.11	0
1	34219	7.21	0
1	34776	7.31	0
1	35333	7.41	0
1	35890	7.51	0
1	36447	7.61	0
1	37004	7.71	0
1	37561	7.81	0
1	38118	7.91	0
1	38683	8.01	0
1	39240	8.11	0
1	39797	8.21	0
1	40354	8.31	0
1	40911	8.41	0
1	41468	8.51	0
1	42025	8.61	0
1	42582	8.71	0
1	43139	8.81	0
1	43696	8.91	0
1	44261	9.01	0
1	44818	9.11	0
1	45375	9.21	0
1	45932	9.31	0
1	46489	9.41	0
1	47046	9.51	0
1	47603	9.61	0
1	48160	9.71	0
1	48717	9.81	0
1	49274	9.91	0
1	49839	10.01	0
1	50396	10.11	0
1	50953	10.21	0
1	51510	10.31	0
1	52067	10.41	0
1	52624	10.51	0
1	53181	10.61	0
1	53738	10.71	0
1	54295	10.81	0
1	54852	10.91	0
1	55417	11.01	0
1	55974	11.11	0
1	56531	11.21	0
1	57088	11.31	0
1	57645	11.41	0
1	58202	11.51	0
1	58759	11.61	0
1	59316	11.71	0
1	59873	11.81	0
1	60430	11.91	0
1	60995	12.01	0
1	61552	12.11	0
1	62109	12.21	0
1	62666	12.31	0
1	63223	12.41	0
1	63780	12.51	0
1	64337	12.61	0
1	64894	12.71	0
1	65451	12.81	0
1	66008	12.91	0
1	66573	13.01	0
1	67130	13.11	0
1	67687	13.21	0
1	68244	13.31	0
1	68801	13.41	0
1	69358	13.51	0
1	69915	13.61	0
1	70472	13.71	0
1	71029	13.81	0
1	71586	13.91	0
1	72151	14.01	0
1	72708	14.11	0
1	73265	14.21	0
1	73822	14.31	0
1	74379	14.41	0
1	74936	14.51	0
1	75493	14.61	0
1	76050	14.71	0
1	76607	14.81	0
1	77164	14.91	0
1	77729	15.01	0
1	78286	15.11	0
1	78843	15.21	0
1	79400	15.31	0
1	79957	15.41	0
1	80514	15.51	0
1	81071	15.61	0
1	81628	15.71	0
1	82185	15.81	0
1	82742	15.91	0
1	83307	16.01	0
1	83864	16.11	0
1	84421	16.21	0
1	84978	16.31	0
1	85535	16.41	0
1	86092	16.51	0
1	86649	16.61	0
1	87206	16.71	0
1	87763	16.81	0
1	88320	16.91	0
1	88885	17.01	0
1	89442	17.11	0
1	89999	17.21	0
1	90556	17.31	0
1	91113	17.41	0
1	91670	17.51	0
1	92227	17.61	0
1	92784	17.71	0
1	93341	17.81	0
1	93898	17.91	0
1	94463	18.01	0
1	95020	18.11	0
1	95577	18.21	0
1	96134	18.31	0
1	96691	18.41	0
1	97248	18.51	0
1	97805	18.61	0
1	98362	18.71	0
1	98919	18.81	0
1	99476	18.91	0
1	100041	19.01	0
1	100598	19.11	0
1	101155	19.21	0
1	101712	19.31	0
1	102269	19.41	0
1	102826	19.51	0
1	103383	19.61	0
1	103940	19.71	0
1	104497	19.81	0
1	105054	19.91	0
1	105619	20.01	0
1	106176	20.11	0
1	106733	20.21	0
1	107290	20.31	0
1	107847	20.41	0
1	108404	20.51	0
1	108961	20.61	0
1	109518	20.71	0
1	110075	20.81	0
1	110632	20.91	0
1	111197	21.01	0
1	111754	21.11	0
1	112311	21.21	0
1	112868	21.31	0
1	113425	21.41	0
1	113982	21.51	0
1	114539	21.61	0
1	115096	21.71	0
1	115653	21.81	0
1	116210	21.91	0
1	116775	22.01	0
1	117332	22.11	0
1	117889	22.21	0
1	118446	22.31	0
1	119003	22.41	0
1	119560	22.51	0
1	120117	22.61	0
1	120674	22.71	0
1	121231	22.81	0
1	121788	22.91	0
1	122353	23.01	0
1	122910	23.11	0
1	123467	23.21	0
1	124024	23.31	0
1	124581	23.41	0
1	125138	23.51	0
1	125695	23.61	0
1	126252	23.71	0
1	126809	23.81	0
1	127366	23.91	0
1	127931	24.01	0
1	128488	24.11	0
1	129045	24.21	0
1	129602	24.31	0
1	130159	24.41	0
1	130716	24.51	0
1	131273	24.61	0
1	131830	24.71	0
1	132387	24.81	0
1	132944	24.91	0
1	133509	25.01	0
1	134066	25.11	0
1	134623	25.21	0
1	135180	25.31	0
1	135737	25.41	0
1	136294	25.51	0
1	136851	25.61	0
1	137408	25.71	0
1	137965	25.81	0
1	138522	25.91	0
1	139087	26.01	0
1	139644	26.11	0
1	140201	26.21	0
1	140758	26.31	0
1	141315	26.41	0
1	141872	26.51	0
1	142429	26.61	0
1	142986	26.71	0
1	143543	26.81	0
1	144100	26.91	0
1	144665	27.01	0
1	145222	27.11	0
1	145779	27.21	0
1	146336	27.31	0
1	146893	27.41	0
1	147450	27.51	0
1	148007	27.61	0
1	148564	27.71	0
1	149121	27.81	0
1	149678	27.91	0
1	150243	28.01	0
1	150800	28.11	0
1	151357	28.21	0
1	151914	28.31	0
1	152471	28.41	0
1	153028	28.51	0
1	153585	28.61	0
1	154142	28.71	0
1	154699	28.81	0
1	155256	28.91	0
1	155821	29.01	0
1	156378	29.11	0
1	156935	29.21	0
1	157492	29.31	0
1	158049	29.41	0
1	158606	29.51	0
1	159163	29.61	0
1	159720	29.71	0
1	160277	29.81	0
1	160834	29.91	0
1	161399	30.01	0
1	161956	30.11	0
1	162513	30.21	0
1	163070	30.31	0
1	163627	30.41	0
1	164184	30.51	0
1	164741	30.61	0
1	165298	30.71	0
1	165855	30.81	0
1	166412	30.91	0
1	166977	31.01	0
1	167534	31.11	0
1	168091	31.21	0
1	168648	31.31	0
1	169205	31.41	0
1	169762	31.51	0
1	170319	31.61	0
1	170876	31.71	0
1	171433	31.81	0
1	171990	31.91	0
1	172555	32.01	0
1	173112	32.11	0
1	173669	32.21	0
1	174226	32.31	0
1	174783	32.41	0
1	175340	32.51	0
1	175897	32.61	0
1	176454	32.71	0
1	177011	32.81	0
1	177568	32.91	0
1	178133	33.01	0
1	178690	33.11	0
1	179247	33.21	0
1	179804	33.31	0
1	180361	33.41	0
1	180918	33.51	0
1	181475	33.61	0
1	182032	33.71	0
1	182589	33.81	0
1	183146	33.91	0
1	183711	34.01	0
1	184268	34.11	0
1	184825	34.21	0
1	185382	34.31	0
1	185939	34.41	0
1	186496	34.51	0
1	187053	34.61	0
1	187610	34.71	0
1	188167	34.81	0
1	188724	34.91	0
1	189289	35.01	0
1	189846	35.11	0
1	190403	35.21	0
1	190960	35.31	0
1	191517	35.41	0
1	192074	35.51	0
1	192631	35.61	0
1	193188	35.71	0
1	193745	35.81	0
1	194302	35.91	0
1	194867	36.01	0
1	195424	36.11	0
1	195981	36.21	0
1	196538	36.31	0
1	197095	36.41	0
1	197652	36.51	0
1	198209	36.61	0
1	198766	36.71	0
1	199323	36.81	0
1	199880	36.91	0
1	200445	37.01	0
1	201002	37.11	0
1	201559	37.21	0
1	202116	37.31	0
1	202673	37.41	0
1	203230	37.51	0
1	203787	37.61	0
1	204344	37.71	0
1	204901	37.81	0
1	205458	37.91	0
1	206023	38.01	0
1	206580	38.11	0
1	207137	38.21	0
1	207694	38.31	0
1	208251	38.41	0
1	208808	38.51	0
1	209365	38.61	0
1	209922	38.71	0
1	210479	38.81	0
1	211036	38.91	0
1	211601	39.01	0
1	212158	39.11	0
1	212715	39.21	0
1	213272	39.31	0
1	213829	39.41	0
1	214386	39.51	0
1	214943	39.61	0
1	215500	39.71	0
1	216057	39.81	0
1	216614	39.91	0
1	217179	40.01	0
1	217736	40.11	0
1	218293	40.21	0
1	218850	40.31	0
1	219407	40.41	0
1	219964	40.51	0
1	220521	40.61	0
1	221078	40.71	0
1	221635	40.81	0
1	222192	40.91	0
1	222757	41.01	0
1	223314	41.11	0
1	223871	41.21	0
1	224428	41.31	0
1	224985	41.41	0
1	225542	41.51	0
1	226099	41.61	0
1	226656	41.71	0
1	227213	41.81	0
1	227770	41.91	0
1	228335	42.01	0
1	228892	42.11	0
1	229449	42.21	0
1	230006	42.31	0
1	230563	42.41	0
1	231120	42.51	0
1	231677	42.61	0
1	232234	42.71	0
1	232791	42.81	0
1	233348	42.91	0
1	233913	43.01	0
1	234470	43.11	0
1	235027	43.21	0
1	235584	43.31	0
1	236141	43.41	0
1	236698	43.51	0
1	237255	43.61	0
1	237812	43.71	0
1	238369	43.81	0
1	238926	43.91	0
1	239491	44.01	0
1	240048	44.11	0
1	240605	44.21	0
1	241162	44.31	0
1	241719	44.41	0
1	242276	44.51	0
1	242833	44.61	0
1	243390	44.71	0
1	243947	44.81	0
1	244504	44.91	0
1	245069	45.01	0
0	232	1.11	-1
0	788	1.21	-1
0	1344	1.31	-1
0	1900	1.41	-1
0	2456	1.51	-1
0	3012	1.61	-1
0	3568	1.71	-1
0	4124	1.81	-1
0	4680	1.91	-1
0	5244	2.01	-1
0	5800	2.11	-1
0	6356	2.21	-1
0	6912	2.31	-1
0	7468	2.41	-1
0	8024	2.51	-1
0	8580	2.61	-1
0	9136	2.71	-1
0	9692	2.81	-1
0	10248	2.91	-1
0	10812	3.01	-1
0	11368	3.11	-1
0	11924	3.21	-1
0	12480	3.31	-1
0	13036	3.41	-1
0	13592	3.51	-1
0	14148	3.61	-1
0	14704	3.71	-1
0	15260	3.81	-1
0	15816	3.91	-1
0	16380	4.01	-1
0	16936	4.11	-1
0	17492	4.21	-1
0	18048	4.31	-1
0	18604	4.41	-1
0	19160	4.51	-1
0	19716	4.61	-1
0	20272	4.71	-1
0	20828	4.81	-1
0	21384	4.91	-1
0	21949	5.01	-1
0	22506	5.11	-1
0	23063	5.21	-1
0	23620	5.31	-1
0	24177	5.41	-1
0	24734	5.51	-1
0	25291	5.61	-1
0	25848	5.71	-1
0	26405	5.81	-1
0	26962	5.91	-1
0	27527	6.01	-1
0	28084	6.11	-1
0	28641	6.21	-1
0	29198	6.31	-1
0	29755	6.41	-1
0	30312	6.51	-1
0	30869	6.61	-1
0	31426	6.71	-1
0	31983	6.81	-1
0	32540	6.91	-1
0	33105	7.01	-1
0	33662	7.11	-1
0	34219	7.21	-1
0	34776	7.31	-1
0	35333	7.41	-1
0	35890	7.51	-1
0	36447	7.61	-1
0	37004	7.71	-1
0	37561	7.81	-1
0	38118	7.91	-1
0	38683	8.01	-1
0	39240	8.11	-1
0	39797	8.21	-1
0	40354	8.31	-1
0	40911	8.41	-1
0	41468	8.51	-1
0	42025	8.61	-1
0	42582	8.71	-1
0	43139	8.81	-1
0	43696	8.91	-1
0	44261	9.01	-1
0	44818	9.11	-1
0	45375	9.21	-1
0	45932	9.31	-1
0	46489	9.41	-1
0	47046	9.51	-1
0	47603	9.61	-1
0	48160	9.71	-1
0	48717	9.81	-1
0	49274	9.91	-1
0	49839	10.01	-1
0	50396	10.11	-1
0	50953	10.21	-1
0	51510	10.31	-1
0	52067	10.41	-1
0	52624	10.51	-1
0	53181	10.61	-1
0	53738	10.71	-1
0	54295	10.81	-1
0	54852	10.91	-1
0	55417	11.01	-1
0	55974	11.11	-1
0	56531	11.21	-1
0	57088	11.31	-1
0	57645	11.41	-1
0	58202	11.51	-1
0	58759	11.61	-1
0	59316	11.71	-1
0	59873	11.81	-1
[...]
35	213518	39.362215741753	0.099998712651
35	214075	39.462214451361	0.099998709608
35	214632	39.562213157819	0.099998706458
35	215189	39.662211861029	0.09999870321
35	215746	39.762210560902	0.099998699873
35	216303	39.862222257365	0.100011696463
35	216860	39.962220950359	0.099998692994
35	217425	40.062219639846	0.099998689487
35	217982	40.162218325805	0.099998685959
35	218539	40.262217008237	0.099998682432
35	219096	40.362215687155	0.099998678918
35	219653	40.462214362593	0.099998675438
35	220210	40.56221303459	0.099998671997
35	220767	40.662211703199	0.099998668609
35	221324	40.762210368476	0.099998665277
35	221881	40.862222030486	0.10001166201
35	222438	40.9622206893	0.099998658814
35	223003	41.06221934499	0.09999865569
35	223560	41.162217997637	0.099998652647
35	224117	41.262216647319	0.099998649682
35	224674	41.36221529412	0.099998646801
35	225231	41.462213938127	0.099998644007
35	225788	41.562212579424	0.099998641297
35	226345	41.662211218102	0.099998638678
35	226902	41.762209854252	0.09999863615
35	227459	41.862221487962	0.10001163371
35	228016	41.96222011933	0.099998631368
35	228581	42.062218748445	0.099998629115
35	229138	42.162217375392	0.099998626947
35	229695	42.262216000246	0.099998624854
35	230252	42.36221462307	0.099998622824
35	230809	42.462213243914	0.099998620844
35	231366	42.562211862804	0.09999861889
35	231923	42.662210479755	0.099998616951
35	232480	42.762222094761	0.100011615006
35	233037	42.862220707795	0.099998613034
35	233594	42.962219318823	0.099998611028
35	234159	43.0622179278	0.099998608977
35	234716	43.162216534672	0.099998606872
35	235273	43.262215139377	0.099998604705
35	235830	43.362213741848	0.099998602471
35	236387	43.462212342014	0.099998600166
35	236944	43.562210939799	0.099998597785
35	237501	43.662209535126	0.099998595327
35	238058	43.762221127915	0.100011592789
35	238615	43.862219718085	0.09999859017
35	239172	43.962218305554	0.099998587469
35	239737	44.062216890237	0.099998584683
35	240294	44.162215472046	0.099998581809
35	240851	44.262214050899	0.099998578853
35	241408	44.362212626711	0.099998575812
35	241965	44.462211199393	0.099998572682
35	242522	44.562209768861	0.099998569468
35	243079	44.662221335034	0.100011566173
35	243636	44.762219897847	0.099998562813
35	244193	44.862218457243	0.099998559396
35	244750	44.962217013188	0.099998555945
35	245315	45.062215565657	0.099998552469
36	1034	1.262217137452	0.099998807224
36	1590	1.362215944676	0.099998807224
36	2146	1.4622147519	0.099998807224
36	2702	1.562213559124	0.099998807224
36	3258	1.662212366348	0.099998807224
36	3814	1.762211173572	0.099998807224
36	4370	1.862209980796	0.099998807224
36	4926	1.96222178802	0.100011807224
36	5490	2.062220595244	0.099998807224
36	6046	2.162219402468	0.099998807224
36	6602	2.262218209692	0.099998807224
36	7158	2.362217016916	0.099998807224
36	7714	2.46221582414	0.099998807224
36	8270	2.562214631364	0.099998807224
36	8826	2.662213438588	0.099998807224
36	9382	2.762212245812	0.099998807224
36	9938	2.862211053036	0.099998807224
36	10494	2.96220986026	0.099998807224
36	11058	3.062221667484	0.100011807224
36	11614	3.162220474708	0.099998807224
36	12170	3.262219281932	0.099998807224
36	12726	3.362218089156	0.099998807224
36	13282	3.46221689638	0.099998807224
36	13838	3.562215703604	0.099998807224
36	14394	3.662214510828	0.099998807224
36	14950	3.762213318052	0.099998807224
36	15506	3.862212125276	0.099998807224
36	16062	3.9622109325	0.099998807224
36	16626	4.062209739724	0.099998807224
36	17182	4.162221546948	0.100011807224
36	17738	4.262220354172	0.099998807224
36	18294	4.362219161396	0.099998807224
36	18850	4.46221796862	0.099998807224
36	19406	4.562216775844	0.099998807224
36	19962	4.662215583068	0.099998807224
36	20518	4.762214390292	0.099998807224
36	21074	4.862213197516	0.099998807224
36	21630	4.96221200474	0.099998807224
36	22195	5.062210811964	0.099998807224
36	22752	5.162209619188	0.099998807224
36	23309	5.262221426416	0.100011807228
36	23866	5.362220233653	0.099998807237
36	24423	5.462219040911	0.099998807258
36	24980	5.562217848208	0.099998807297
36	25537	5.662216655559	0.099998807351
36	26094	5.762215462991	0.099998807432
36	26651	5.862214270518	0.099998807527
36	27208	5.962213078156	0.099998807638
36	27773	6.062211885921	0.099998807765
36	28330	6.162210693824	0.099998807903
36	28887	6.262209501876	0.099998808052
36	29444	6.362221310084	0.100011808208
36	30001	6.462220118458	0.099998808374
36	30558	6.562218927002	0.099998808544
36	31115	6.662217735723	0.099998808721
36	31672	6.762216544624	0.099998808901
36	32229	6.862215353703	0.099998809079
36	32786	6.962214162953	0.09999880925
36	33351	7.062212972367	0.099998809414
36	33908	7.162211781925	0.099998809558
36	34465	7.262210591606	0.099998809681
36	35022	7.362222401386	0.10001180978
36	35579	7.462221211238	0.099998809852
36	36136	7.562220021133	0.099998809895
36	36693	7.662218831039	0.099998809906
36	37250	7.762217640934	0.099998809895
36	37807	7.862216450793	0.099998809859
36	38364	7.9622152606	0.099998809807
36	38929	8.062214070334	0.099998809734
36	39486	8.162212879986	0.099998809652
36	40043	8.262211689539	0.099998809553
36	40600	8.362210498986	0.099998809447
36	41157	8.462222308318	0.100011809332
36	41714	8.562221117523	0.099998809205
36	42271	8.6622199266	0.099998809077
36	42828	8.762218735537	0.099998808937
36	43385	8.862217544328	0.099998808791
36	43942	8.962216352967	0.099998808639
36	44507	9.06221516145	0.099998808483
36	45064	9.162213969771	0.099998808321
36	45621	9.262212777926	0.099998808155
36	46178	9.362211585909	0.099998807983
36	46735	9.462210393714	0.099998807805
36	47292	9.562222201337	0.100011807623
36	47849	9.662221008777	0.09999880744
36	48406	9.762219816038	0.099998807261
36	48963	9.862218623131	0.099998807093
36	49520	9.962217430072	0.099998806941
36	50085	10.062216236885	0.099998806813
36	50642	10.162215043594	0.099998806709
36	51199	10.262213850233	0.099998806639
36	51756	10.362212656834	0.099998806601
36	52313	10.462211463425	0.099998806591
36	52870	10.562210270034	0.099998806609
36	53427	10.662222076682	0.100011806648
36	53984	10.76222088339	0.099998806708
36	54541	10.862219690172	0.099998806782
36	55098	10.962218497041	0.099998806869
36	55663	11.062217304009	0.099998806968
36	56220	11.162216111084	0.099998807075
36	56777	11.26221491828	0.099998807196
36	57334	11.362213725602	0.099998807322
36	57891	11.462212533057	0.099998807455
36	58448	11.56221134065	0.099998807593
36	59005	11.662210148391	0.099998807741
36	59562	11.762221956285	0.100011807894
36	60119	11.862220764336	0.099998808051
36	60676	11.962219572549	0.099998808213
36	61241	12.062218380925	0.099998808376
36	61798	12.162217189463	0.099998808538
36	62355	12.262215998153	0.09999880869
36	62912	12.362214806978	0.099998808825
36	63469	12.462213615918	0.09999880894
36	64026	12.562212424943	0.099998809025
36	64583	12.662211234028	0.099998809085
36	65140	12.762210043139	0.099998809111
36	65697	12.862221852249	0.10001180911
36	66254	12.962220661328	0.099998809079
36	66819	13.06221947036	0.099998809032
36	67376	13.16221827932	0.09999880896
36	67933	13.262217088196	0.099998808876
36	68490	13.362215896976	0.09999880878
36	69047	13.462214705644	0.099998808668
36	69604	13.562213514193	0.099998808549
36	70161	13.662212322613	0.09999880842
36	70718	13.762211130899	0.099998808286
36	71275	13.862209939041	0.099998808142
36	71832	13.962221747033	0.100011807992
36	72397	14.06222055487	0.099998807837
36	72954	14.162219362544	0.099998807674
36	73511	14.262218170053	0.099998807509
36	74068	14.362216977391	0.099998807338
36	74625	14.462215784552	0.099998807161
36	75182	14.562214591533	0.099998806981
36	75739	14.662213398338	0.099998806805
36	76296	14.762212204974	0.099998806636
36	76853	14.862211011458	0.099998806484
36	77410	14.962209817806	0.099998806348
36	77975	15.062221624044	0.100011806238
36	78532	15.162220430201	0.099998806157
36	79089	15.262219236311	0.09999880611
36	79646	15.362218042402	0.099998806091
36	80203	15.462216848504	0.099998806102
36	80760	15.562215654637	0.099998806133
36	81317	15.662214460827	0.09999880619
36	81874	15.762213267085	0.099998806258
36	82431	15.862212073429	0.099998806344
36	82988	15.962210879868	0.099998806439
36	83553	16.062209686416	0.099998806548
36	84110	16.16222149308	0.100011806664
36	84667	16.26222029987	0.09999880679
36	85224	16.362219106793	0.099998806923
36	85781	16.462217913855	0.099998807062
36	86338	16.562216721065	0.09999880721
36	86895	16.662215528426	0.099998807361
36	87452	16.762214335942	0.099998807516
36	88009	16.862213143622	0.09999880768
36	88566	16.962211951471	0.099998807849
36	89131	17.06221075949	0.099998808019
36	89688	17.162209567677	0.099998808187
36	90245	17.262221376023	0.100011808346
36	90802	17.362220184516	0.099998808493
36	91359	17.462218993131	0.099998808615
36	91916	17.562217801843	0.099998808712
36	92473	17.662216610625	0.099998808782
36	93030	17.762215419445	0.09999880882
36	93587	17.862214228275	0.09999880883
36	94144	17.962213037083	0.099998808808
36	94709	18.062211845851	0.099998808768
36	95266	18.162210654556	0.099998808705
36	95823	18.262209463183	0.099998808627
36	96380	18.362221271718	0.100011808535
36	96937	18.462220080149	0.099998808431
36	97494	18.562218888466	0.099998808317
36	98051	18.662217696658	0.099998808192
36	98608	18.76221650472	0.099998808062
36	99165	18.862215312643	0.099998807923
36	99722	18.962214120419	0.099998807776
36	100287	19.062212928045	0.099998807626
36	100844	19.162211735512	0.099998807467
36	101401	19.262210542818	0.099998807306
36	101958	19.362222349953	0.100011807135
36	102515	19.462221156917	0.099998806964
36	103072	19.562219963705	0.099998806788
36	103629	19.66221877032	0.099998806615
36	104186	19.762217576771	0.099998806451
36	104743	19.862216383071	0.0999988063
36	105300	19.962215189243	0.099998806172
36	105865	20.062213995309	0.099998806066
36	106422	20.162212801302	0.099998805993
36	106979	20.262211607248	0.099998805946
36	107536	20.362210413183	0.099998805935
36	108093	20.462222219131	0.100011805948
36	108650	20.562221025116	0.099998805985
36	109207	20.662219831159	0.099998806043
36	109764	20.762218637275	0.099998806116
36	110321	20.862217443479	0.099998806204
36	110878	20.962216249783	0.099998806304
36	111443	21.062215056197	0.099998806414
36	112000	21.16221386273	0.099998806533
36	112557	21.262212669392	0.099998806662
36	113114	21.362211476189	0.099998806797
36	113671	21.462210283129	0.09999880694
36	114228	21.562222090216	0.100011807087
36	114785	21.662220897458	0.099998807242
36	115342	21.762219704858	0.0999988074
36	115899	21.862218512425	0.099998807567
36	116456	21.962217320159	0.099998807734
36	117021	22.062216128066	0.099998807907
36	117578	22.162214936144	0.099998808078
36	118135	22.262213744383	0.099998808239
36	118692	22.362212552769	0.099998808386
36	119249	22.462211361282	0.099998808513
36	119806	22.562210169894	0.099998808612
36	120363	22.662221978578	0.100011808684
36	120920	22.762220787304	0.099998808726
36	121477	22.862219596039	0.099998808735
36	122034	22.962218404757	0.099998808718
36	122599	23.062217213435	0.099998808678
36	123156	23.162216022052	0.099998808617
36	123713	23.262214830595	0.099998808543
36	124270	23.362213639046	0.099998808451
36	124827	23.462212447394	0.099998808348
36	125384	23.562211255631	0.099998808237
36	125941	23.662210063745	0.099998808114
36	126498	23.76222187173	0.100011807985
36	127055	23.862220679575	0.099998807845
36	127612	23.962219487278	0.099998807703
36	128177	24.062218294829	0.099998807551
36	128734	24.162217102222	0.099998807393
36	129291	24.262215909454	0.099998807232
36	129848	24.362214716522	0.099998807068
36	130405	24.462213523416	0.099998806894
36	130962	24.562212330136	0.09999880672
36	131519	24.662211136684	0.099998806548
36	132076	24.762209943069	0.099998806385
36	132633	24.862221749305	0.100011806236
36	133190	24.962220555412	0.099998806107
36	133755	25.062219361415	0.099998806003
36	134312	25.162218167347	0.099998805932
36	134869	25.262216973236	0.099998805889
36	135426	25.362215779112	0.099998805876
36	135983	25.462214585003	0.099998805891
36	136540	25.562213390932	0.099998805929
36	137097	25.66221219692	0.099998805988
36	137654	25.762211002983	0.099998806063
36	138211	25.862209809132	0.099998806149
36	138768	25.962221615382	0.10001180625
36	139333	26.062220421745	0.099998806363
36	139890	26.162219228227	0.099998806482
36	140447	26.262218034838	0.099998806611
36	141004	26.362216841584	0.099998806746
36	141561	26.462215648473	0.099998806889
36	142118	26.562214455511	0.099998807038
36	142675	26.662213262706	0.099998807195
36	143232	26.762212070062	0.099998807356
36	143789	26.862210877582	0.09999880752
36	144346	26.962209685272	0.09999880769
36	144911	27.062221493136	0.100011807864
36	145468	27.16222030117	0.099998808034
36	146025	27.262219109365	0.099998808195
36	146582	27.362217917708	0.099998808343
36	147139	27.462216726179	0.099998808471
36	147696	27.562215534752	0.099998808573
36	148253	27.662214343397	0.099998808645
36	148810	27.762213152083	0.099998808686
36	149367	27.86221196078	0.099998808697
36	149924	27.962210769459	0.099998808679
36	150489	28.0622095781	0.099998808641
36	151046	28.162221386681	0.100011808581
36	151603	28.262220195186	0.099998808505
36	152160	28.362219003602	0.099998808416
36	152717	28.462217811918	0.099998808316
36	153274	28.56221662012	0.099998808202
36	153831	28.662215428201	0.099998808081
36	154388	28.762214236152	0.099998807951
36	154945	28.862213043965	0.099998807813
36	155502	28.962211851636	0.099998807671
36	156067	29.062210659155	0.099998807519
36	156624	29.162209466518	0.099998807363
36	157181	29.262221273719	0.100011807201
36	157738	29.362220080756	0.099998807037
36	158295	29.462218887619	0.099998806863
36	158852	29.562217694308	0.099998806689
36	159409	29.662216500826	0.099998806518
36	159966	29.762215307182	0.099998806356
36	160523	29.862214113386	0.099998806204
36	161080	29.962212919464	0.099998806078
36	161645	30.06221172544	0.099998805976
36	162202	30.162210531343	0.099998805903
36	162759	30.262222337207	0.100011805864
36	163316	30.362221143068	0.099998805861
36	163873	30.462219948966	0.099998805898
36	164430	30.562218754936	0.09999880597
36	164987	30.662217561019	0.099998806083
36	165544	30.762216367252	0.099998806233
36	166101	30.862215173677	0.099998806425
36	166658	30.962213980331	0.099998806654
36	167223	31.062212787257	0.099998806926
36	167780	31.162211594493	0.099998807236
36	168337	31.26221040208	0.099998807587
36	168894	31.362222210061	0.100011807981
36	169451	31.462221018477	0.099998808416
36	170008	31.562219827368	0.099998808891
36	170565	31.662218636776	0.099998809408
36	171122	31.762217446741	0.099998809965
36	171679	31.862216257309	0.099998810568
36	172236	31.962215068521	0.099998811212
36	172801	32.062213880413	0.099998811892
36	173358	32.162212693024	0.099998812611
36	173915	32.262211506374	0.09999881335
36	174472	32.362210320473	0.099998814099
36	175029	32.462222135317	0.100011814844
36	175586	32.562220950881	0.099998815564
36	176143	32.662219767121	0.09999881624
36	176700	32.762218583974	0.099998816853
36	177257	32.862217401367	0.099998817393
36	177814	32.962216219204	0.099998817837
36	178379	33.062215037385	0.099998818181
36	178936	33.162213855802	0.099998818417
36	179493	33.262212674336	0.099998818534
36	180050	33.362211492864	0.099998818528
36	180607	33.462210311262	0.099998818398
36	181164	33.562222129398	0.100011818136
36	181721	33.662220947137	0.099998817739
36	182278	33.762219764345	0.099998817208
36	182835	33.862218580883	0.099998816538
36	183392	33.962217396614	0.099998815731
36	183957	34.062216211398	0.099998814784
36	184514	34.162215025094	0.099998813696
36	185071	34.262213837565	0.099998812471
36	185628	34.362212648665	0.0999988111
36	186185	34.462211458256	0.099998809591
36	186742	34.562210266199	0.099998807943
36	187299	34.66222207236	0.100011806161
36	187856	34.762220876618	0.099998804258
36	188413	34.862219678865	0.099998802247
36	188970	34.96221847901	0.099998800145
36	189535	35.062217276981	0.099998797971
36	190092	35.162216072723	0.099998795742
36	190649	35.262214866204	0.099998793481
36	191206	35.362213657406	0.099998791202
36	191763	35.462212446328	0.099998788922
36	192320	35.562211232974	0.099998786646
36	192877	35.662210017362	0.099998784388
36	193434	35.762221799518	0.100011782156
36	193991	35.862220579477	0.099998779959
36	194548	35.962219357275	0.099998777798
36	195113	36.062218132953	0.099998775678
36	195670	36.162216906554	0.099998773601
36	196227	36.262215678134	0.09999877158
36	196784	36.362214447738	0.099998769604
36	197341	36.462213215425	0.099998767687
36	197898	36.562211981247	0.099998765822
36	198455	36.662210745267	0.09999876402
36	199012	36.76220950754	0.099998762273
36	199569	36.86222126813	0.10001176059
36	200126	36.962220027097	0.099998758967
36	200691	37.062218784504	0.099998757407
36	201248	37.162217540407	0.099998755903
36	201805	37.262216294855	0.099998754448
36	202362	37.362215047879	0.099998753024
36	202919	37.4622137995	0.099998751621
36	203476	37.562212549719	0.099998750219
36	204033	37.66221129852	0.099998748801
36	204590	37.762210045871	0.099998747351
36	205147	37.862221791719	0.100011745848
36	205704	37.962220536002	0.099998744283
36	206269	38.062219278649	0.099998742647
36	206826	38.16221801958	0.099998740931
36	207383	38.262216758708	0.099998739128
36	207940	38.362215495941	0.099998737233
36	208497	38.462214231181	0.09999873524
36	209054	38.562212964329	0.099998733148
36	209611	38.662211695286	0.099998730957
36	210168	38.762210423948	0.099998728662
36	210725	38.862222150207	0.100011726259
36	211282	38.96222087396	0.099998723753
36	211847	39.062219595098	0.099998721138
36	212404	39.162218313514	0.099998718416
36	212961	39.262217029102	0.099998715588
36	213518	39.362215741753	0.099998712651
36	214075	39.462214451361	0.099998709608
36	214632	39.562213157819	0.099998706458
36	215189	39.662211861029	0.09999870321
36	215746	39.762210560902	0.099998699873
36	216303	39.862222257365	0.100011696463
36	216860	39.962220950359	0.099998692994
36	217425	40.062219639846	0.099998689487
36	217982	40.162218325805	0.099998685959
36	218539	40.262217008237	0.099998682432
36	219096	40.362215687155	0.099998678918
36	219653	40.462214362593	0.099998675438
36	220210	40.56221303459	0.099998671997
36	220767	40.662211703199	0.099998668609
36	221324	40.762210368476	0.099998665277
36	221881	40.862222030486	0.10001166201
36	222438	40.9622206893	0.099998658814
36	223003	41.06221934499	0.09999865569
36	223560	41.162217997637	0.099998652647
36	224117	41.262216647319	0.099998649682
36	224674	41.36221529412	0.099998646801
36	225231	41.462213938127	0.099998644007
36	225788	41.562212579424	0.099998641297
36	226345	41.662211218102	0.099998638678
36	226902	41.762209854252	0.09999863615
36	227459	41.862221487962	0.10001163371
36	228016	41.96222011933	0.099998631368
36	228581	42.062218748445	0.099998629115
36	229138	42.162217375392	0.099998626947
36	229695	42.262216000246	0.099998624854
36	230252	42.36221462307	0.099998622824
36	230809	42.462213243914	0.099998620844
36	231366	42.562211862804	0.09999861889
36	231923	42.662210479755	0.099998616951
36	232480	42.762222094761	0.100011615006
36	233037	42.862220707795	0.099998613034
36	233594	42.962219318823	0.099998611028
36	234159	43.0622179278	0.099998608977
36	234716	43.162216534672	0.099998606872
36	235273	43.262215139377	0.099998604705
36	235830	43.362213741848	0.099998602471
36	236387	43.462212342014	0.099998600166
36	236944	43.562210939799	0.099998597785
36	237501	43.662209535126	0.099998595327
36	238058	43.762221127915	0.100011592789
36	238615	43.862219718085	0.09999859017
36	239172	43.962218305554	0.099998587469
36	239737	44.062216890237	0.099998584683
36	240294	44.162215472046	0.099998581809
36	240851	44.262214050899	0.099998578853
36	241408	44.362212626711	0.099998575812
36	241965	44.462211199393	0.099998572682
36	242522	44.562209768861	0.099998569468
36	243079	44.662221335034	0.100011566173
36	243636	44.762219897847	0.099998562813
36	244193	44.862218457243	0.099998559396
36	244750	44.962217013188	0.099998555945
36	245315	45.062215565657	0.099998552469
