file 1252245 1501600352                                         
version 2
run SinusoidalJammingDetail-331-20170801-17:12:07-24294
attr CACCSpacing 7
attr attackAcc -30
attr attackPos 7
attr attackSpeed 150
attr attackStart 30
attr attacker 1
attr beaconInterval 0.1
attr configname SinusoidalJammingDetail
attr controller 1
attr datetime 20170801-17:12:07
attr experiment SinusoidalJammingDetail
attr fakeAcc "(1 == 4)"
attr fakePos "(1 == 2)"
attr fakeSpeed "(1 == 3)"
attr inifile omnetpp_331.ini
attr iterationvars "$leaderSpeed=100, $controller=1, $CACCSpacing=7, $sController=\"CACC\", $attacker=1, $attackStart=30, $attackSpeed=150, $attackPos=7, $attackAcc=-30, $0=7, $1=0, $nCars=8, $platoonSize=8, $nLanes=1, $beaconInterval=0.1, $priority=2, $packetSize=200, $ploegH=0.5, $leaderHeadway=1.2, $fakeSpeed=(1 == 3), $fakeAcc=(1 == 4), $fakePos=(1 == 2)"
attr iterationvarsf leaderSpeed=100,controller=1,CACCSpacing=7,sController=CACC,attacker=1,attackStart=30,attackSpeed=150,attackPos=7,attackAcc=-30,7,0,nCars=8,platoonSize=8,nLanes=1,beaconInterval=0.1,priority=2,packetSize=200,ploegH=0.5,leaderHeadway=1.2,fakeSpeed=(1_==_3),fakeAcc=(1_==_4),fakePos=(1_==_2)-
attr leaderHeadway 1.2
attr leaderSpeed 100
attr measurement "$leaderSpeed=100, $controller=1, $CACCSpacing=7, $sController=\"CACC\", $attacker=1, $attackStart=30, $attackSpeed=150, $attackPos=7, $attackAcc=-30, $0=7, $1=0, $nCars=8, $platoonSize=8, $nLanes=1, $beaconInterval=0.1, $priority=2, $packetSize=200, $ploegH=0.5, $leaderHeadway=1.2, $fakeSpeed=(1 == 3), $fakeAcc=(1 == 4), $fakePos=(1 == 2)"
attr nCars 8
attr nLanes 1
attr network scenario
attr packetSize 200
attr platoonSize 8
attr ploegH 0.5
attr priority 2
attr processid 24294
attr repetition 1
attr replication #1
attr resultdir results
attr runnumber 331
attr sController "\"CACC\""
attr seedset 1
param **.coreDebug false
param **.debug false
param **.headway 0.1s
param **.numberOfCars 8
param **.numberOfCarsPerPlatoon 8
param **.numberOfLanes 1
param **.numericController 1
param **.traffic.nCars 8
param **.traffic.nLanes 1
param **.traffic.platoonInsertDistance 7m
param **.traffic.platoonInsertHeadway 0s
param **.traffic.platoonInsertSpeed 100kmph
param **.traffic.platoonInsertTime "1 s"
param **.traffic.platoonLeaderHeadway 1.2s
param **.traffic.platoonSize 8
param **.traffic.platooningVType "\"vtypeauto\""
param **.traffic_type "\"PlatoonsTrafficManager\""
param *.**.nic.mac1609_4.bitrate 6Mbps
param *.**.nic.mac1609_4.txPower 100mW
param *.**.nic.mac1609_4.useServiceChannel false
param *.**.nic.phy80211p.analogueModels "xmldoc(\"config.xml\")"
param *.**.nic.phy80211p.decider "xmldoc(\"config.xml\")"
param *.**.nic.phy80211p.maxTXPower 100mW
param *.**.nic.phy80211p.sensitivity -94dBm
param *.**.nic.phy80211p.thermalNoise -95dBm
param *.**.nic.phy80211p.usePropagationDelay true
param *.**.nic.phy80211p.useThermalNoise true
param *.annotations.draw false
param *.connectionManager.alpha 2.0
param *.connectionManager.carrierFrequency "5.890e9 Hz"
param *.connectionManager.pMax 100mW
param *.connectionManager.sat -94dBm
param *.connectionManager.sendDirect true
param *.manager.autoShutdown true
param *.manager.commandLine "\"sumo --remote-port $port --seed $seed --configuration-file $configFile\""
param *.manager.configFile "\"./sumocfg/freeway.sumo.cfg\""
param *.manager.host "\"localhost\""
param *.manager.margin 25
param *.manager.moduleDisplayString "\"\""
param *.manager.moduleName "\"node\""
param *.manager.moduleType "\"Car\""
param *.manager.updateInterval 0.01s
param *.node[*].appl.attackStart 30s
param *.node[*].appl.attackerType 1
param *.node[*].appl.simulationDuration "60 s"
param *.node[*].appl_type "\"SimplePlatooningApp\""
param *.node[*].helper.nCars 8
param *.node[*].helper.nLanes 1
param *.node[*].helper.platoonSize 8
param *.node[*].helper_type "\"PositionHelper\""
param *.node[*].mobility.x 0
param *.node[*].mobility.y 0
param *.node[*].mobility.z 1.895
param *.node[*].prot.attackStart 30s
param *.node[*].prot.attackerType 1
param *.node[*].prot.attackingNode 3
param *.node[*].prot.beaconingInterval 0.1s
param *.node[*].prot.fakeAcc "(1 == 4)"
param *.node[*].prot.fakePos "(1 == 2)"
param *.node[*].prot.fakeSpeed "(1 == 3)"
param *.node[*].prot.maliciousAcc "-30 mpss"
param *.node[*].prot.maliciousSpeed 150kmph
param *.node[*].prot.packetSize 200
param *.node[*].prot.priority 2
param *.node[*].prot.shiftX "7 m"
param *.node[*].prot.useControllerAcceleration true
param *.node[*].protocol_type "\"SimplePlatooningBeaconing\""
param *.node[*].scenario.accHeadway 0.1s
param *.node[*].scenario.caccC1 0.5
param *.node[*].scenario.caccOmegaN "0.2 Hz"
param *.node[*].scenario.caccSpacing 7m
param *.node[*].scenario.caccXi 1
param *.node[*].scenario.controller "\"CACC\""
param *.node[*].scenario.engineTau "0.5 s"
param *.node[*].scenario.leaderHeadway 1.2s
param *.node[*].scenario.leaderOscillationFrequency "0.2 Hz"
param *.node[*].scenario.leaderSpeed 100kmph
param *.node[*].scenario.oscillationAmplitude "10 kmph"
param *.node[*].scenario.ploegH 0.5s
param *.node[*].scenario.ploegKd 0.7
param *.node[*].scenario.ploegKp 0.2
param *.node[*].scenario.startOscillating "5 s"
param *.node[*].scenario.useRealisticEngine false
param *.node[*].scenario_type "\"SinusoidalScenario\""
param *.node[*].unicast.packetLossRate 0
param *.obstacles.debug false
param *.playgroundSizeX 65000m
param *.playgroundSizeY 25000m
param *.playgroundSizeZ 50m
param *.world.use2D false
param *.world.useTorus false

vector 0  scenario.node[0].appl  distance  ETV
vector 1  scenario.node[0].appl  relativeSpeed  ETV
vector 2  scenario.node[0].appl  nodeId  ETV
vector 6  scenario.node[0].appl  acceleration  ETV
vector 7  scenario.node[0].appl  controllerAcceleration  ETV
vector 3  scenario.node[0].appl  speed  ETV
vector 4  scenario.node[0].appl  posx  ETV
vector 5  scenario.node[0].appl  posy  ETV
vector 22  scenario.node[1].appl  distance  ETV
vector 23  scenario.node[1].appl  relativeSpeed  ETV
vector 24  scenario.node[1].appl  nodeId  ETV
vector 28  scenario.node[1].appl  acceleration  ETV
vector 29  scenario.node[1].appl  controllerAcceleration  ETV
vector 25  scenario.node[1].appl  speed  ETV
vector 26  scenario.node[1].appl  posx  ETV
vector 27  scenario.node[1].appl  posy  ETV
vector 44  scenario.node[2].appl  distance  ETV
vector 45  scenario.node[2].appl  relativeSpeed  ETV
vector 46  scenario.node[2].appl  nodeId  ETV
vector 50  scenario.node[2].appl  acceleration  ETV
vector 51  scenario.node[2].appl  controllerAcceleration  ETV
vector 47  scenario.node[2].appl  speed  ETV
vector 48  scenario.node[2].appl  posx  ETV
vector 49  scenario.node[2].appl  posy  ETV
vector 66  scenario.node[3].appl  distance  ETV
vector 67  scenario.node[3].appl  relativeSpeed  ETV
vector 68  scenario.node[3].appl  nodeId  ETV
vector 72  scenario.node[3].appl  acceleration  ETV
vector 73  scenario.node[3].appl  controllerAcceleration  ETV
vector 69  scenario.node[3].appl  speed  ETV
vector 70  scenario.node[3].appl  posx  ETV
vector 71  scenario.node[3].appl  posy  ETV
vector 88  scenario.node[4].appl  distance  ETV
vector 89  scenario.node[4].appl  relativeSpeed  ETV
vector 90  scenario.node[4].appl  nodeId  ETV
vector 94  scenario.node[4].appl  acceleration  ETV
vector 95  scenario.node[4].appl  controllerAcceleration  ETV
vector 91  scenario.node[4].appl  speed  ETV
vector 92  scenario.node[4].appl  posx  ETV
vector 93  scenario.node[4].appl  posy  ETV
vector 110  scenario.node[5].appl  distance  ETV
vector 111  scenario.node[5].appl  relativeSpeed  ETV
vector 112  scenario.node[5].appl  nodeId  ETV
vector 116  scenario.node[5].appl  acceleration  ETV
vector 117  scenario.node[5].appl  controllerAcceleration  ETV
vector 113  scenario.node[5].appl  speed  ETV
vector 114  scenario.node[5].appl  posx  ETV
vector 115  scenario.node[5].appl  posy  ETV
vector 132  scenario.node[6].appl  distance  ETV
vector 133  scenario.node[6].appl  relativeSpeed  ETV
vector 134  scenario.node[6].appl  nodeId  ETV
vector 138  scenario.node[6].appl  acceleration  ETV
vector 139  scenario.node[6].appl  controllerAcceleration  ETV
vector 135  scenario.node[6].appl  speed  ETV
vector 136  scenario.node[6].appl  posx  ETV
vector 137  scenario.node[6].appl  posy  ETV
vector 154  scenario.node[7].appl  distance  ETV
vector 155  scenario.node[7].appl  relativeSpeed  ETV
vector 156  scenario.node[7].appl  nodeId  ETV
vector 160  scenario.node[7].appl  acceleration  ETV
vector 161  scenario.node[7].appl  controllerAcceleration  ETV
vector 157  scenario.node[7].appl  speed  ETV
vector 158  scenario.node[7].appl  posx  ETV
vector 159  scenario.node[7].appl  posy  ETV
vector 58  scenario.node[2].prot  frontDelay  ETV
vector 56  scenario.node[2].prot  frontDelayId  ETV
vector 102  scenario.node[4].prot  frontDelay  ETV
vector 100  scenario.node[4].prot  frontDelayId  ETV
vector 146  scenario.node[6].prot  frontDelay  ETV
vector 144  scenario.node[6].prot  frontDelayId  ETV
vector 168  scenario.node[7].prot  frontDelay  ETV
vector 166  scenario.node[7].prot  frontDelayId  ETV
vector 124  scenario.node[5].prot  frontDelay  ETV
vector 122  scenario.node[5].prot  frontDelayId  ETV
vector 35  scenario.node[1].prot  leaderDelay  ETV
vector 33  scenario.node[1].prot  leaderDelayId  ETV
vector 36  scenario.node[1].prot  frontDelay  ETV
vector 34  scenario.node[1].prot  frontDelayId  ETV
vector 57  scenario.node[2].prot  leaderDelay  ETV
vector 55  scenario.node[2].prot  leaderDelayId  ETV
vector 79  scenario.node[3].prot  leaderDelay  ETV
vector 77  scenario.node[3].prot  leaderDelayId  ETV
vector 101  scenario.node[4].prot  leaderDelay  ETV
vector 99  scenario.node[4].prot  leaderDelayId  ETV
vector 123  scenario.node[5].prot  leaderDelay  ETV
vector 121  scenario.node[5].prot  leaderDelayId  ETV
vector 145  scenario.node[6].prot  leaderDelay  ETV
vector 143  scenario.node[6].prot  leaderDelayId  ETV
vector 167  scenario.node[7].prot  leaderDelay  ETV
vector 165  scenario.node[7].prot  leaderDelayId  ETV
vector 80  scenario.node[3].prot  frontDelay  ETV
vector 78  scenario.node[3].prot  frontDelayId  ETV
vector 8  scenario.node[0].prot  nodeId  ETV
vector 9  scenario.node[0].prot  busyTime  ETV
vector 10  scenario.node[0].prot  collisions  ETV
vector 30  scenario.node[1].prot  nodeId  ETV
vector 31  scenario.node[1].prot  busyTime  ETV
vector 32  scenario.node[1].prot  collisions  ETV
vector 52  scenario.node[2].prot  nodeId  ETV
vector 53  scenario.node[2].prot  busyTime  ETV
vector 54  scenario.node[2].prot  collisions  ETV
vector 74  scenario.node[3].prot  nodeId  ETV
vector 75  scenario.node[3].prot  busyTime  ETV
vector 76  scenario.node[3].prot  collisions  ETV
vector 96  scenario.node[4].prot  nodeId  ETV
vector 97  scenario.node[4].prot  busyTime  ETV
vector 98  scenario.node[4].prot  collisions  ETV
vector 118  scenario.node[5].prot  nodeId  ETV
vector 119  scenario.node[5].prot  busyTime  ETV
vector 120  scenario.node[5].prot  collisions  ETV
vector 140  scenario.node[6].prot  nodeId  ETV
vector 141  scenario.node[6].prot  busyTime  ETV
vector 142  scenario.node[6].prot  collisions  ETV
vector 162  scenario.node[7].prot  nodeId  ETV
vector 163  scenario.node[7].prot  busyTime  ETV
vector 164  scenario.node[7].prot  collisions  ETV
7	11232 10396 232 244504 1.11 44.91 439 -1.5 1.5 -14.445972811044 719.94705799964
6	21628 13832 232 244504 1.11 44.91 439 -1.4722746794938 1.4513433675031 -12.507267019758 489.9099994479
5	35460 8931 232 244504 1.11 44.91 439 36.55 36.55 16045.45 586461.1975
4	44391 13262 232 244504 1.11 44.91 439 112.38317031834 1333.3659687055 317885.76515865 284870907.19626
3	57653 13273 232 244504 1.11 44.91 439 26.487967210471 29.742492528104 12237.172138143 341439.07470941
1	70926 7175 232 244504 1.11 44.91 439 0 0 0 0
0	78101 7614 232 244504 1.11 44.91 439 -1 -1 -439 439
2	85715 7175 232 244504 1.11 44.91 439 0 0 0 0
10	92890 618 5168 239414 2 44 43 0 0 0 0
9	93508 834 5168 239414 2 44 43 0.023297 0.02625 1.125797 0.029483375209
8	94342 575 5168 239414 2 44 43 0 0 0 0
51	94917 14380 234 244506 1.11 44.91 439 -1.5092135970071 1.5122039357141 8.1682894755763 460.94353166249
50	109297 14416 234 244506 1.11 44.91 439 -1.4841297343438 1.4672918322109 8.4428238857857 322.8000918487
49	123713 9370 234 244506 1.11 44.91 439 36.55 36.55 16045.45 586461.1975
48	133083 13714 234 244506 1.11 44.91 439 90.383170318604 1322.9909003219 308811.89128572 272557473.39791
47	146797 13711 234 244506 1.11 44.91 439 26.475320203185 29.739897711456 12354.15122685 348000.86793197
45	160508 15084 234 244506 1.11 44.91 439 -0.48507837513793 0.012241035970902 -47.545490210971 19.977335854547
44	175592 13689 234 244506 1.11 44.91 439 2.2710600573698 7.0331336978485 2823.5671551978 18810.771271551
46	189281 7614 234 244506 1.11 44.91 439 2 2 878 1756
58	196895 17575 832 244548 1.212435623764 44.91243346537 438 0.099998401951 0.100011598601 43.799996428678 4.3799992929584
57	214470 17526 1244 244403 1.297802137452 44.897801423572 437 0.099998402206 0.100011598249 43.699997873192 4.3699995818597
56	231996 11931 832 244548 1.212435623764 44.91243346537 438 2 2 876 1752
55	243927 11898 1244 244403 1.297802137452 44.897801423572 437 2 2 874 1748
54	255825 618 5170 239416 2 44 43 0 0 0 0
53	256443 877 5170 239416 2 44 43 0.023296 0.02625 1.125796 0.029483328616
52	257320 618 5170 239416 2 44 43 2 2 86 172
73	257938 14332 235 244507 1.11 44.91 439 -1.4954488811835 1.498650847703 11.964844201379 449.50126496877
72	272270 14392 235 244507 1.11 44.91 439 -1.4697266297038 1.452249250687 12.403251327746 318.58676860742
71	286662 9370 235 244507 1.11 44.91 439 36.55 36.55 16045.45 586461.1975
70	296032 13694 235 244507 1.11 44.91 439 79.383170318604 1315.7395745678 304160.32764764 266253415.2012
69	309726 13721 235 244507 1.11 44.91 439 26.486975104806 29.72489769669 12391.776814397 350186.6719563
67	323447 14979 235 244507 1.11 44.91 439 -0.43288460901731 0.021653873671916 -37.7100157861 13.517268978639
66	338426 13696 235 244507 1.11 44.91 439 3.2592718071558 7.0520778879207 2896.3161498271 19467.793759047
68	352122 7614 235 244507 1.11 44.91 439 3 3 1317 3951
80	359736 17525 1312 244472 1.307224174144 44.907223447773 437 0.099998402073 0.100011599384 43.699997860701 4.3699995793593
79	377261 17524 1250 244409 1.297802174144 44.897801447786 437 0.099998402073 0.100011598225 43.699997860714 4.3699995793641
78	394785 11890 1312 244472 1.307224174144 44.907223447773 437 3 3 1311 3933
77	406675 11892 1250 244409 1.297802174144 44.897801447786 437 3 3 1311 3933
76	418567 618 5171 239417 2 44 43 0 0 0 0
75	419185 877 5171 239417 2 44 43 0.023297 0.02625 1.125797 0.029483375209
74	420062 618 5171 239417 2 44 43 3 3 129 387
95	420680 14340 236 244508 1.11 44.91 439 -1.5015734354391 1.5060862450726 15.723071834929 457.69069338534
94	435020 14390 236 244508 1.11 44.91 439 -1.4671620257765 1.4503898344376 16.144702138093 319.2504570785
93	449410 9370 236 244508 1.11 44.91 439 36.55 36.55 16045.45 586461.1975
92	458780 13709 236 244508 1.11 44.91 439 68.383170318604 1307.6206837498 299455.59251972 259920606.34103
91	472489 13712 236 244508 1.11 44.91 439 26.4884633182 29.773403147518 12420.718797212 351889.83778366
89	486201 14973 236 244508 1.11 44.91 439 -0.37581393162271 0.015827593206613 -29.066015328665 8.5888184200366
88	501174 13680 236 244508 1.11 44.91 439 4.1263687483945 7.0167039462913 2949.3139675759 20006.307594309
90	514854 7614 236 244508 1.11 44.91 439 4 4 1756 7024
102	522468 18020 902 244618 1.235039697148 44.935037516614 438 0.099998401692 0.100011598579 43.799996406538 4.3799992885305
101	540488 17975 1256 244415 1.297802210836 44.897801474893 437 0.099998401948 0.10001159821 43.699997851129 4.3699995774471
100	558463 12360 902 244618 1.235039697148 44.935037516614 438 4 4 1752 7008
99	570823 11903 1256 244415 1.297802210836 44.897801474893 437 4 4 1748 6992
98	582726 618 5172 239418 2 44 43 0 0 0 0
97	583344 877 5172 239418 2 44 43 0.023297 0.02625 1.125797 0.029483375209
96	584221 618 5172 239418 2 44 43 4 4 172 688
117	584839 14787 237 244509 1.11 44.91 439 -1.5284774898913 1.5300606455115 19.340534067776 471.43628889235
116	599626 14838 237 244509 1.11 44.91 439 -1.4661745254248 1.448484696278 19.479884277318 319.68479808941
115	614464 9809 237 244509 1.11 44.91 439 36.55 36.55 16045.45 586461.1975
114	624273 14148 237 244509 1.11 44.91 439 57.383172225952 1298.7725622259 294708.89891265 253589218.51557
113	638421 14148 237 244509 1.11 44.91 439 26.489555439437 30.001459375217 12442.354277358 353176.22440635
111	652569 15358 237 244509 1.11 44.91 439 -0.33260204526124 0.02093092803203 -21.796927167585 5.4007204744161
110	667927 14159 237 244509 1.11 44.91 439 4.8547944482088 7.0458383433935 2991.126316679 20476.504615892
112	682086 8053 237 244509 1.11 44.91 439 5 5 2195 10975
124	690139 17975 1178 244337 1.297388953992 44.897388332295 437 0.09999840371 0.100011599153 43.699997965375 4.369999600294
123	708114 17980 1262 244421 1.297802247528 44.897801504429 437 0.099998401836 0.100011598204 43.699997843973 4.3699995760159
122	726094 12337 1178 244337 1.297388953992 44.897388332295 437 5 5 2185 10925
121	738431 12339 1262 244421 1.297802247528 44.897801504429 437 5 5 2185 10925
120	750770 661 5173 239419 2 44 43 0 0 0 0
119	751431 920 5173 239419 2 44 43 0.023297 0.02625 1.125797 0.029483375209
118	752351 661 5173 239419 2 44 43 5 5 215 1075
139	753012 14787 238 244510 1.11 44.91 439 -1.4999727096697 1.5046152369711 21.99434863131 455.35032161586
138	767799 14827 238 244510 1.11 44.91 439 -1.4605505450778 1.4432664551983 22.285360228812 317.5914144096
137	782626 9809 238 244510 1.11 44.91 439 36.55 36.55 16045.45 586461.1975
136	792435 14155 238 244510 1.11 44.91 439 46.383172225952 1289.3557816044 289936.78387384 247299053.51712
135	806590 14150 238 244510 1.11 44.91 439 26.495206895692 30.184148539676 12458.284434918 354128.29726217
133	820740 15392 238 244510 1.11 44.91 439 -0.27818291843249 0.023301932416814 -16.124956402005 3.1220040513677
132	836132 14137 238 244510 1.11 44.91 439 5.4223637177467 7.0188540387738 3016.4336419566 20774.972067506
134	850269 8053 238 244510 1.11 44.91 439 6 6 2634 15804
146	858322 18006 970 244686 1.248712770532 44.948710577489 438 0.099998401488 0.100011599167 43.799996394029 4.3799992860274
145	876328 17973 1268 244427 1.29780228422 44.897801535859 437 0.099998401744 0.1000115982 43.699997838711 4.3699995749635
144	894301 12357 970 244686 1.248712770532 44.948710577489 438 6 6 2628 15768
143	906658 12335 1268 244427 1.29780228422 44.897801535859 437 6 6 2622 15732
142	918993 661 5174 239420 2 44 43 0 0 0 0
141	919654 920 5174 239420 2 44 43 0.023297 0.02625 1.125797 0.029483375209
140	920574 661 5174 239420 2 44 43 6 6 258 1548
161	921235 14760 239 244511 1.11 44.91 439 -1.5093935057707 1.5126459046838 24.455982193395 463.25525787294
160	935995 14805 239 244511 1.11 44.91 439 -1.4619692869356 1.4451435687519 24.532198289958 319.31844917648
159	950800 9809 239 244511 1.11 44.91 439 36.55 36.55 16045.45 586461.1975
158	960609 14151 239 244511 1.11 44.91 439 35.383171749115 1279.5015815692 285146.32291388 241068556.51682
157	974760 14150 239 244511 1.11 44.91 439 26.493024037284 30.333040813573 12469.82081901 354824.12576614
155	988910 15419 239 244511 1.11 44.91 439 -0.22292295466368 0.024254031525153 -11.759237694432 1.7563216488413
154	1004329 14139 239 244511 1.11 44.91 439 5.8586748552761 7.0179694239829 3034.6916876441 21002.150895235
156	1018468 8053 239 244511 1.11 44.91 439 7 7 3073 21511
168	1026521 18003 1040 244756 1.263893807224 44.963891610322 438 0.099998401414 0.100011599293 43.79999639017 4.3799992852555
167	1044524 17953 1274 244433 1.297802320912 44.897801568744 437 0.09999840167 0.100011598195 43.699997834904 4.3699995742021
166	1062477 12361 1040 244756 1.263893807224 44.963891610322 438 7 7 3066 21462
165	1074838 12328 1274 244433 1.297802320912 44.897801568744 437 7 7 3059 21413
164	1087166 661 5175 239421 2 44 43 0 0 0 0
163	1087827 920 5175 239421 2 44 43 0.023297 0.02625 1.125797 0.029483375209
162	1088747 661 5175 239421 2 44 43 7 7 301 2107
22	1089408 13752 233 244790 1.11 44.98 440 0 9.2024139981442 2740.64629951 18918.325342535
23	1103160 14645 233 244790 1.11 44.98 440 -2.1871911651965 1.2748586462789 -71.078310754716 190.85006302408
24	1117805 7632 233 244790 1.11 44.98 440 1 1 440 440
25	1125437 13746 233 244790 1.11 44.98 440 26.465830279496 29.751301063749 12334.893648043 346073.71119695
26	1139183 13753 233 244790 1.11 44.98 440 101.3831703186 1331.2312817241 314721.73974158 280556175.62017
27	1152936 9392 233 244790 1.11 44.98 440 36.55 36.55 16082 587797.1
28	1162328 14486 233 244790 1.11 44.98 440 -1.4954736408896 1.476059228591 4.604906976332 324.91104841368
29	1176814 14432 233 244790 1.11 44.98 440 -1.5555551923497 1.5570065800035 4.5863579343246 482.86370396529
30	1191246 618 5169 239415 2 44 43 1 1 43 43
31	1191864 877 5169 239415 2 44 43 0.023297 0.02625 1.125797 0.029483375209
32	1192741 618 5169 239415 2 44 43 0 0 0 0
33	1193359 11900 1238 244397 1.29780210076 44.897801402654 437 1 1 437 437
34	1205259 11900 1238 244397 1.29780210076 44.897801402654 437 1 1 437 437
35	1217159 17543 1238 244397 1.29780210076 44.897801402654 437 0.099998402334 0.100011598297 43.699997888966 4.3699995850145
36	1234702 17543 1238 244397 1.29780210076 44.897801402654 437 0.099998402334 0.100011598297 43.699997888966 4.3699995850145
