file 982842 1501598249                                          
version 2
run SinusoidalJammingDetail-194-20170801-16:37:11-86135
attr CACCSpacing 7
attr attackAcc -30
attr attackPos 7
attr attackSpeed 150
attr attackStart 31
attr attacker 1
attr beaconInterval 0.1
attr configname SinusoidalJammingDetail
attr controller 1
attr datetime 20170801-16:37:11
attr experiment SinusoidalJammingDetail
attr fakeAcc "(1 == 4)"
attr fakePos "(1 == 2)"
attr fakeSpeed "(1 == 3)"
attr inifile omnetpp_194.ini
attr iterationvars "$leaderSpeed=80, $controller=1, $CACCSpacing=7, $sController=\"CACC\", $attacker=1, $attackStart=31, $attackSpeed=150, $attackPos=7, $attackAcc=-30, $0=7, $1=0, $nCars=8, $platoonSize=8, $nLanes=1, $beaconInterval=0.1, $priority=2, $packetSize=200, $ploegH=0.5, $leaderHeadway=1.2, $fakeSpeed=(1 == 3), $fakeAcc=(1 == 4), $fakePos=(1 == 2)"
attr iterationvarsf leaderSpeed=80,controller=1,CACCSpacing=7,sController=CACC,attacker=1,attackStart=31,attackSpeed=150,attackPos=7,attackAcc=-30,7,0,nCars=8,platoonSize=8,nLanes=1,beaconInterval=0.1,priority=2,packetSize=200,ploegH=0.5,leaderHeadway=1.2,fakeSpeed=(1_==_3),fakeAcc=(1_==_4),fakePos=(1_==_2)-
attr leaderHeadway 1.2
attr leaderSpeed 80
attr measurement "$leaderSpeed=80, $controller=1, $CACCSpacing=7, $sController=\"CACC\", $attacker=1, $attackStart=31, $attackSpeed=150, $attackPos=7, $attackAcc=-30, $0=7, $1=0, $nCars=8, $platoonSize=8, $nLanes=1, $beaconInterval=0.1, $priority=2, $packetSize=200, $ploegH=0.5, $leaderHeadway=1.2, $fakeSpeed=(1 == 3), $fakeAcc=(1 == 4), $fakePos=(1 == 2)"
attr nCars 8
attr nLanes 1
attr network scenario
attr packetSize 200
attr platoonSize 8
attr ploegH 0.5
attr priority 2
attr processid 86135
attr repetition 4
attr replication #4
attr resultdir results
attr runnumber 194
attr sController "\"CACC\""
attr seedset 4
param **.coreDebug false
param **.debug false
param **.headway 0.1s
param **.numberOfCars 8
param **.numberOfCarsPerPlatoon 8
param **.numberOfLanes 1
param **.numericController 1
param **.traffic.nCars 8
param **.traffic.nLanes 1
param **.traffic.platoonInsertDistance 7m
param **.traffic.platoonInsertHeadway 0s
param **.traffic.platoonInsertSpeed 80kmph
param **.traffic.platoonInsertTime "1 s"
param **.traffic.platoonLeaderHeadway 1.2s
param **.traffic.platoonSize 8
param **.traffic.platooningVType "\"vtypeauto\""
param **.traffic_type "\"PlatoonsTrafficManager\""
param *.**.nic.mac1609_4.bitrate 6Mbps
param *.**.nic.mac1609_4.txPower 100mW
param *.**.nic.mac1609_4.useServiceChannel false
param *.**.nic.phy80211p.analogueModels "xmldoc(\"config.xml\")"
param *.**.nic.phy80211p.decider "xmldoc(\"config.xml\")"
param *.**.nic.phy80211p.maxTXPower 100mW
param *.**.nic.phy80211p.sensitivity -94dBm
param *.**.nic.phy80211p.thermalNoise -95dBm
param *.**.nic.phy80211p.usePropagationDelay true
param *.**.nic.phy80211p.useThermalNoise true
param *.annotations.draw false
param *.connectionManager.alpha 2.0
param *.connectionManager.carrierFrequency "5.890e9 Hz"
param *.connectionManager.pMax 100mW
param *.connectionManager.sat -94dBm
param *.connectionManager.sendDirect true
param *.manager.autoShutdown true
param *.manager.commandLine "\"sumo --remote-port $port --seed $seed --configuration-file $configFile\""
param *.manager.configFile "\"./sumocfg/freeway.sumo.cfg\""
param *.manager.host "\"localhost\""
param *.manager.margin 25
param *.manager.moduleDisplayString "\"\""
param *.manager.moduleName "\"node\""
param *.manager.moduleType "\"Car\""
param *.manager.updateInterval 0.01s
param *.node[*].appl.attackStart 31s
param *.node[*].appl.attackerType 1
param *.node[*].appl.simulationDuration "60 s"
param *.node[*].appl_type "\"SimplePlatooningApp\""
param *.node[*].helper.nCars 8
param *.node[*].helper.nLanes 1
param *.node[*].helper.platoonSize 8
param *.node[*].helper_type "\"PositionHelper\""
param *.node[*].mobility.x 0
param *.node[*].mobility.y 0
param *.node[*].mobility.z 1.895
param *.node[*].prot.attackStart 31s
param *.node[*].prot.attackerType 1
param *.node[*].prot.attackingNode 3
param *.node[*].prot.beaconingInterval 0.1s
param *.node[*].prot.fakeAcc "(1 == 4)"
param *.node[*].prot.fakePos "(1 == 2)"
param *.node[*].prot.fakeSpeed "(1 == 3)"
param *.node[*].prot.maliciousAcc "-30 mpss"
param *.node[*].prot.maliciousSpeed 150kmph
param *.node[*].prot.packetSize 200
param *.node[*].prot.priority 2
param *.node[*].prot.shiftX "7 m"
param *.node[*].prot.useControllerAcceleration true
param *.node[*].protocol_type "\"SimplePlatooningBeaconing\""
param *.node[*].scenario.accHeadway 0.1s
param *.node[*].scenario.caccC1 0.5
param *.node[*].scenario.caccOmegaN "0.2 Hz"
param *.node[*].scenario.caccSpacing 7m
param *.node[*].scenario.caccXi 1
param *.node[*].scenario.controller "\"CACC\""
param *.node[*].scenario.engineTau "0.5 s"
param *.node[*].scenario.leaderHeadway 1.2s
param *.node[*].scenario.leaderOscillationFrequency "0.2 Hz"
param *.node[*].scenario.leaderSpeed 80kmph
param *.node[*].scenario.oscillationAmplitude "10 kmph"
param *.node[*].scenario.ploegH 0.5s
param *.node[*].scenario.ploegKd 0.7
param *.node[*].scenario.ploegKp 0.2
param *.node[*].scenario.startOscillating "5 s"
param *.node[*].scenario.useRealisticEngine false
param *.node[*].scenario_type "\"SinusoidalScenario\""
param *.node[*].unicast.packetLossRate 0
param *.obstacles.debug false
param *.playgroundSizeX 65000m
param *.playgroundSizeY 25000m
param *.playgroundSizeZ 50m
param *.world.use2D false
param *.world.useTorus false

vector 0  scenario.node[0].appl  distance  ETV
vector 1  scenario.node[0].appl  relativeSpeed  ETV
vector 2  scenario.node[0].appl  nodeId  ETV
vector 6  scenario.node[0].appl  acceleration  ETV
vector 7  scenario.node[0].appl  controllerAcceleration  ETV
vector 3  scenario.node[0].appl  speed  ETV
vector 4  scenario.node[0].appl  posx  ETV
vector 5  scenario.node[0].appl  posy  ETV
vector 22  scenario.node[1].appl  distance  ETV
vector 23  scenario.node[1].appl  relativeSpeed  ETV
vector 24  scenario.node[1].appl  nodeId  ETV
vector 28  scenario.node[1].appl  acceleration  ETV
vector 29  scenario.node[1].appl  controllerAcceleration  ETV
vector 25  scenario.node[1].appl  speed  ETV
vector 26  scenario.node[1].appl  posx  ETV
vector 27  scenario.node[1].appl  posy  ETV
vector 44  scenario.node[2].appl  distance  ETV
vector 45  scenario.node[2].appl  relativeSpeed  ETV
vector 46  scenario.node[2].appl  nodeId  ETV
vector 50  scenario.node[2].appl  acceleration  ETV
vector 51  scenario.node[2].appl  controllerAcceleration  ETV
vector 47  scenario.node[2].appl  speed  ETV
vector 48  scenario.node[2].appl  posx  ETV
vector 49  scenario.node[2].appl  posy  ETV
vector 66  scenario.node[3].appl  distance  ETV
vector 67  scenario.node[3].appl  relativeSpeed  ETV
vector 68  scenario.node[3].appl  nodeId  ETV
vector 72  scenario.node[3].appl  acceleration  ETV
vector 73  scenario.node[3].appl  controllerAcceleration  ETV
vector 69  scenario.node[3].appl  speed  ETV
vector 70  scenario.node[3].appl  posx  ETV
vector 71  scenario.node[3].appl  posy  ETV
vector 88  scenario.node[4].appl  distance  ETV
vector 89  scenario.node[4].appl  relativeSpeed  ETV
vector 90  scenario.node[4].appl  nodeId  ETV
vector 94  scenario.node[4].appl  acceleration  ETV
vector 95  scenario.node[4].appl  controllerAcceleration  ETV
vector 91  scenario.node[4].appl  speed  ETV
vector 92  scenario.node[4].appl  posx  ETV
vector 93  scenario.node[4].appl  posy  ETV
vector 110  scenario.node[5].appl  distance  ETV
vector 111  scenario.node[5].appl  relativeSpeed  ETV
vector 112  scenario.node[5].appl  nodeId  ETV
vector 116  scenario.node[5].appl  acceleration  ETV
vector 117  scenario.node[5].appl  controllerAcceleration  ETV
vector 113  scenario.node[5].appl  speed  ETV
vector 114  scenario.node[5].appl  posx  ETV
vector 115  scenario.node[5].appl  posy  ETV
vector 132  scenario.node[6].appl  distance  ETV
vector 133  scenario.node[6].appl  relativeSpeed  ETV
vector 134  scenario.node[6].appl  nodeId  ETV
vector 138  scenario.node[6].appl  acceleration  ETV
vector 139  scenario.node[6].appl  controllerAcceleration  ETV
vector 135  scenario.node[6].appl  speed  ETV
vector 136  scenario.node[6].appl  posx  ETV
vector 137  scenario.node[6].appl  posy  ETV
vector 154  scenario.node[7].appl  distance  ETV
vector 155  scenario.node[7].appl  relativeSpeed  ETV
vector 156  scenario.node[7].appl  nodeId  ETV
vector 160  scenario.node[7].appl  acceleration  ETV
vector 161  scenario.node[7].appl  controllerAcceleration  ETV
vector 157  scenario.node[7].appl  speed  ETV
vector 158  scenario.node[7].appl  posx  ETV
vector 159  scenario.node[7].appl  posy  ETV
vector 102  scenario.node[4].prot  frontDelay  ETV
vector 100  scenario.node[4].prot  frontDelayId  ETV
vector 35  scenario.node[1].prot  leaderDelay  ETV
vector 33  scenario.node[1].prot  leaderDelayId  ETV
vector 36  scenario.node[1].prot  frontDelay  ETV
vector 34  scenario.node[1].prot  frontDelayId  ETV
vector 57  scenario.node[2].prot  leaderDelay  ETV
vector 55  scenario.node[2].prot  leaderDelayId  ETV
vector 79  scenario.node[3].prot  leaderDelay  ETV
vector 77  scenario.node[3].prot  leaderDelayId  ETV
vector 101  scenario.node[4].prot  leaderDelay  ETV
vector 99  scenario.node[4].prot  leaderDelayId  ETV
vector 123  scenario.node[5].prot  leaderDelay  ETV
vector 121  scenario.node[5].prot  leaderDelayId  ETV
vector 145  scenario.node[6].prot  leaderDelay  ETV
vector 143  scenario.node[6].prot  leaderDelayId  ETV
vector 167  scenario.node[7].prot  leaderDelay  ETV
vector 165  scenario.node[7].prot  leaderDelayId  ETV
vector 80  scenario.node[3].prot  frontDelay  ETV
vector 78  scenario.node[3].prot  frontDelayId  ETV
vector 146  scenario.node[6].prot  frontDelay  ETV
vector 144  scenario.node[6].prot  frontDelayId  ETV
vector 58  scenario.node[2].prot  frontDelay  ETV
vector 56  scenario.node[2].prot  frontDelayId  ETV
vector 124  scenario.node[5].prot  frontDelay  ETV
vector 122  scenario.node[5].prot  frontDelayId  ETV
vector 168  scenario.node[7].prot  frontDelay  ETV
vector 166  scenario.node[7].prot  frontDelayId  ETV
vector 8  scenario.node[0].prot  nodeId  ETV
vector 9  scenario.node[0].prot  busyTime  ETV
vector 10  scenario.node[0].prot  collisions  ETV
vector 30  scenario.node[1].prot  nodeId  ETV
vector 31  scenario.node[1].prot  busyTime  ETV
vector 32  scenario.node[1].prot  collisions  ETV
vector 52  scenario.node[2].prot  nodeId  ETV
vector 53  scenario.node[2].prot  busyTime  ETV
vector 54  scenario.node[2].prot  collisions  ETV
vector 74  scenario.node[3].prot  nodeId  ETV
vector 75  scenario.node[3].prot  busyTime  ETV
vector 76  scenario.node[3].prot  collisions  ETV
vector 96  scenario.node[4].prot  nodeId  ETV
vector 97  scenario.node[4].prot  busyTime  ETV
vector 98  scenario.node[4].prot  collisions  ETV
vector 118  scenario.node[5].prot  nodeId  ETV
vector 119  scenario.node[5].prot  busyTime  ETV
vector 120  scenario.node[5].prot  collisions  ETV
vector 140  scenario.node[6].prot  nodeId  ETV
vector 141  scenario.node[6].prot  busyTime  ETV
vector 142  scenario.node[6].prot  collisions  ETV
vector 162  scenario.node[7].prot  nodeId  ETV
vector 163  scenario.node[7].prot  busyTime  ETV
vector 164  scenario.node[7].prot  collisions  ETV
7	11226 8231 232 192631 1.11 35.61 346 -1.5 1.5 -4.1779601303792 552.85883064959
6	19457 10850 232 192631 1.11 35.61 346 -1.4722746795719 1.451340770512 -9.8648639383292 368.60215241605
5	30307 6978 232 192631 1.11 35.61 346 36.55 36.55 12646.3 462222.265
4	37285 10396 232 192631 1.11 35.61 346 125.49742202785 895.63068189256 177173.61363248 107938874.33522
3	47681 10407 232 192631 1.11 35.61 346 20.932420134352 24.18693697487 7723.2025191195 172653.27417996
1	58088 5594 232 192631 1.11 35.61 346 0 0 0 0
0	63682 5940 232 192631 1.11 35.61 346 -1 -1 -346 346
2	69622 5594 232 192631 1.11 35.61 346 0 0 0 0
10	75216 484 5234 189278 2 35 34 0 0 0 0
9	75700 655 5234 189278 2 35 34 0.023625 0.02625 0.889875 0.023297203125
8	76355 450 5234 189278 2 35 34 0 0 0 0
51	76805 11136 234 192633 1.11 35.61 346 -1.5169291850419 1.5151528885074 33.171357411078 502.84647296914
50	87941 11154 234 192633 1.11 35.61 346 -1.4744692109936 1.4486483618931 31.830698585868 346.83694127149
49	99095 7324 234 192633 1.11 35.61 346 36.55 36.55 12646.3 462222.265
48	106419 10750 234 192633 1.11 35.61 346 103.49742202759 881.32045741644 169641.97826349 100449831.21545
47	117169 10749 234 192633 1.11 35.61 346 20.934251523969 25.394479289881 7801.5647450366 176300.36961208
45	127918 11776 234 192633 1.11 35.61 346 -0.5879081830057 0.01616485188115 -9.9991823539942 3.8484971285678
44	139694 10723 234 192633 1.11 35.61 346 6.0584086178093 7.0430603127224 2410.6894307279 16802.002680058
46	150417 5940 234 192633 1.11 35.61 346 2 2 692 1384
58	156357 13799 1176 193019 1.281932430988 35.681937331855 345 0.099998734553 0.100011809161 34.500003708091 3.4500007465241
57	170156 13788 970 192813 1.241823137452 35.641815051393 345 0.0999987354 0.100011809247 34.499990721165 3.4499981490023
56	183944 9346 1176 193019 1.281932430988 35.681937331855 345 2 2 690 1380
55	193290 9335 970 192813 1.241823137452 35.641815051393 345 2 2 690 1380
54	202625 484 5236 189280 2 35 34 0 0 0 0
53	203109 689 5236 189280 2 35 34 0.023625 0.02625 0.889875 0.023297203125
52	203798 484 5236 189280 2 35 34 2 2 68 136
73	204282 11133 235 192634 1.11 35.61 346 -1.4985212030993 1.4980940903398 37.354879101758 496.38383073099
72	215415 11168 235 192634 1.11 35.61 346 -1.4637937897149 1.4376572531081 35.419130900314 346.78442080976
71	226583 7324 235 192634 1.11 35.61 346 36.55 36.55 12646.3 462222.265
70	233907 10742 235 192634 1.11 35.61 346 92.497422027588 870.83652665759 165841.88107539 96770227.911018
69	244649 10743 235 192634 1.11 35.61 346 20.943734527902 25.746151195841 7806.8497739287 176562.00878801
67	255392 11886 235 192634 1.11 35.61 346 -0.3540073294529 0.013757111257814 -5.6033358779407 1.2511104668512
66	267278 10731 235 192634 1.11 35.61 346 6.4909641969654 7.038741953524 2416.2028886743 16874.608318085
68	278009 5940 235 192634 1.11 35.61 346 3 3 1038 3114
80	283949 13782 1040 192883 1.262750174144 35.662755086304 345 0.099998735282 0.100011809181 34.500003719384 3.4500007487833
79	297731 13793 976 192819 1.241823174144 35.641815086328 345 0.099998735283 0.100011809252 34.499990719408 3.4499981486509
78	311524 9334 1040 192883 1.262750174144 35.662755086304 345 3 3 1035 3105
77	320858 9343 976 192819 1.241823174144 35.641815086328 345 3 3 1035 3105
76	330201 484 5237 189281 2 35 34 0 0 0 0
75	330685 689 5237 189281 2 35 34 0.023625 0.02625 0.889875 0.023297203125
74	331374 484 5237 189281 2 35 34 3 3 102 306
95	331858 11117 236 192635 1.11 35.61 346 -1.4920639058887 1.4922980129789 39.722309370435 492.1424376417
94	342975 11177 236 192635 1.11 35.61 346 -1.4606979411507 1.4336101293342 37.499751130409 348.49054995263
93	354152 7324 236 192635 1.11 35.61 346 36.55 36.55 12646.3 462222.265
92	361476 10746 236 192635 1.11 35.61 346 81.497422027588 860.06022720223 162037.47924198 93167087.580172
91	372222 10736 236 192635 1.11 35.61 346 20.948198420294 25.949632284265 7809.1589988628 176679.46429648
89	382958 11746 236 192635 1.11 35.61 346 -0.20723362771236 0.025327720019025 -2.6634162430447 0.45967977511048
88	394704 10755 236 192635 1.11 35.61 346 6.7803690771251 7.0545017296574 2420.4480179153 16932.688697756
90	405459 5940 236 192635 1.11 35.61 346 4 4 1384 5536
102	411399 14120 904 192747 1.240525990684 35.640530957751 345 0.099998738253 0.100011809266 34.500003774291 3.4500007597648
101	425519 14137 982 192825 1.241823210836 35.641815122253 345 0.099998735215 0.100011809255 34.499990718641 3.4499981484975
100	439656 9673 904 192747 1.240525990684 35.640530957751 345 4 4 1380 5520
99	449329 9331 982 192825 1.241823210836 35.641815122253 345 4 4 1380 5520
98	458660 484 5238 189282 2 35 34 0 0 0 0
97	459144 689 5238 189282 2 35 34 0.023625 0.02625 0.889875 0.023297203125
96	459833 484 5238 189282 2 35 34 4 4 136 544
117	460317 11476 237 192636 1.11 35.61 346 -1.4980277554272 1.498882779786 41.741695510077 501.29112117904
116	471793 11499 237 192636 1.11 35.61 346 -1.4539402604996 1.4285447638088 38.697678743253 348.19833074061
115	483292 7670 237 192636 1.11 35.61 346 36.55 36.55 12646.3 462222.265
114	490962 11098 237 192636 1.11 35.61 346 70.497422027588 849.25695443643 158234.08549744 89648818.685498
113	502060 11093 237 192636 1.11 35.61 346 20.951244361835 26.067676549183 7811.1677163484 176778.28217551
111	513153 12072 237 192636 1.11 35.61 346 -0.12279090277115 0.035220628031976 -2.3837149969769 0.33761944639574
110	525225 11077 237 192636 1.11 35.61 346 6.8056336511037 7.0290411915214 2419.4339188882 16918.434352629
112	536302 6286 237 192636 1.11 35.61 346 5 5 1730 8650
124	542588 14129 1242 193085 1.287402541064 35.687394438647 345 0.099998734325 0.100011809263 34.500003704807 3.4500007458682
123	556717 14123 988 192831 1.241823247528 35.641815158277 345 0.099998735176 0.100011809257 34.499990717973 3.4499981483639
122	570840 9685 1242 193085 1.287402541064 35.687394438647 345 5 5 1725 8625
121	580525 9674 988 192831 1.241823247528 35.641815158277 345 5 5 1725 8625
120	590199 518 5239 189283 2 35 34 0 0 0 0
119	590717 723 5239 189283 2 35 34 0.023625 0.02625 0.889875 0.023297203125
118	591440 518 5239 189283 2 35 34 5 5 170 850
139	591958 11464 238 192637 1.11 35.61 346 -1.4889617652229 1.4892821174072 42.346016651647 492.77733036619
138	603422 11509 238 192637 1.11 35.61 346 -1.4484613456254 1.4234684578565 39.366580998633 346.24828041771
137	614931 7670 238 192637 1.11 35.61 346 36.55 36.55 12646.3 462222.265
136	622601 11085 238 192637 1.11 35.61 346 59.497422027588 838.34186634417 154428.90564186 86211455.950084
135	633686 11081 238 192637 1.11 35.61 346 20.957497126001 26.131737119215 7812.0397376802 176820.16018167
133	644767 12104 238 192637 1.11 35.61 346 -0.069389806265981 0.019374231482789 -1.2589981191931 0.096804288952993
132	656871 11084 238 192637 1.11 35.61 346 6.916369303658 7.0150694527439 2421.1972960071 16942.821635925
134	667955 6286 238 192637 1.11 35.61 346 6 6 2076 12456
146	674241 14133 1106 192949 1.26671228422 35.666704194629 345 0.099998735153 0.100011809259 34.499990717633 3.4499981482959
145	688374 14135 994 192837 1.24182328422 35.641815194679 345 0.099998735155 0.10001180926 34.499990717683 3.4499981483059
144	702509 9681 1106 192949 1.26671228422 35.666704194629 345 6 6 2070 12420
143	712190 9681 994 192837 1.24182328422 35.641815194679 345 6 6 2070 12420
142	721871 518 5240 189284 2 35 34 0 0 0 0
141	722389 723 5240 189284 2 35 34 0.023625 0.02625 0.889875 0.023297203125
140	723112 518 5240 189284 2 35 34 6 6 204 1224
161	723630 11467 239 192638 1.11 35.61 346 -1.4963534198868 1.4966188932009 43.21087648731 503.13819657729
160	735097 11509 239 192638 1.11 35.61 346 -1.4517793252484 1.4279262002432 39.830420653636 349.96827583688
159	746606 7670 239 192638 1.11 35.61 346 36.55 36.55 12646.3 462222.265
158	754276 11085 239 192638 1.11 35.61 346 48.497422027588 827.44305223217 150624.16763569 82858115.835704
157	765361 11099 239 192638 1.11 35.61 346 20.950743298677 26.17830017407 7813.067878607 176873.08706284
155	776460 12107 239 192638 1.11 35.61 346 -0.052282877503206 0.034536367436694 -1.4218067368183 0.1841770366725
154	788567 11073 239 192638 1.11 35.61 346 6.899745373103 7.0229360130883 2420.7585689824 16936.755460972
156	799640 6286 239 192638 1.11 35.61 346 7 7 2422 16954
168	805926 14142 1308 193145 1.289466614448 35.689471511383 345 0.099998734287 0.100011809088 34.500003704159 3.4500007457378
167	820068 14119 1000 192843 1.241823320912 35.641815231029 345 0.099998735139 0.100011809257 34.499990717341 3.4499981482375
166	834187 9685 1308 193145 1.289466614448 35.689471511383 345 7 7 2415 16905
165	843872 9665 1000 192843 1.241823320912 35.641815231029 345 7 7 2415 16905
164	853537 518 5241 189285 2 35 34 0 0 0 0
163	854055 723 5241 189285 2 35 34 0.023625 0.02625 0.889875 0.023297203125
162	854778 518 5241 189285 2 35 34 7 7 238 1666
22	855296 10769 233 193183 1.11 35.69 347 0 7.1735815732507 2354.5131827784 16304.027403409
23	866065 11660 233 193183 1.11 35.69 347 -3.8332538750178 0.19967064189655 -72.06044855865 227.2460681987
24	877725 5958 233 193183 1.11 35.69 347 1 1 347 347
25	883683 10777 233 193183 1.11 35.69 347 20.931730249294 24.809427587199 7816.633717505 176435.64587675
26	894460 10779 233 193183 1.11 35.69 347 114.49742202759 893.35181715064 174329.82470227 105001470.9108
27	905239 7346 233 193183 1.11 35.69 347 36.55 36.55 12682.85 463558.1675
28	912585 11197 233 193183 1.11 35.69 347 -1.4807765621246 1.4557932509529 25.894380341678 341.96021261675
29	923782 11179 233 193183 1.11 35.69 347 -1.5034793949309 1.5024511414919 25.877272096387 490.42275349422
30	934961 484 5235 189279 2 35 34 1 1 34 34
31	935445 689 5235 189279 2 35 34 0.023625 0.02625 0.889875 0.023297203125
32	936134 484 5235 189279 2 35 34 0 0 0 0
33	936618 9336 964 192807 1.24182310076 35.64181501794 345 1 1 345 345
34	945954 9336 964 192807 1.24182310076 35.64181501794 345 1 1 345 345
35	955290 13776 964 192807 1.24182310076 35.64181501794 345 0.099998735595 0.100011809245 34.499990724404 3.4499981496501
36	969066 13776 964 192807 1.24182310076 35.64181501794 345 0.099998735595 0.100011809245 34.499990724404 3.4499981496501
