file 973383 1501602855                                          
version 2
run SinusoidalJammingDetail-496-20170801-17:53:57-21470
attr CACCSpacing 7
attr attackAcc -30
attr attackPos 7
attr attackSpeed 150
attr attackStart 31.5
attr attacker 1
attr beaconInterval 0.1
attr configname SinusoidalJammingDetail
attr controller 1
attr datetime 20170801-17:53:57
attr experiment SinusoidalJammingDetail
attr fakeAcc "(1 == 4)"
attr fakePos "(1 == 2)"
attr fakeSpeed "(1 == 3)"
attr inifile omnetpp_496.ini
attr iterationvars "$leaderSpeed=120, $controller=1, $CACCSpacing=7, $sController=\"CACC\", $attacker=1, $attackStart=31.5, $attackSpeed=150, $attackPos=7, $attackAcc=-30, $0=7, $1=0, $nCars=8, $platoonSize=8, $nLanes=1, $beaconInterval=0.1, $priority=2, $packetSize=200, $ploegH=0.5, $leaderHeadway=1.2, $fakeSpeed=(1 == 3), $fakeAcc=(1 == 4), $fakePos=(1 == 2)"
attr iterationvarsf leaderSpeed=120,controller=1,CACCSpacing=7,sController=CACC,attacker=1,attackStart=31.5,attackSpeed=150,attackPos=7,attackAcc=-30,7,0,nCars=8,platoonSize=8,nLanes=1,beaconInterval=0.1,priority=2,packetSize=200,ploegH=0.5,leaderHeadway=1.2,fakeSpeed=(1_==_3),fakeAcc=(1_==_4),fakePos=(1_==_2)-
attr leaderHeadway 1.2
attr leaderSpeed 120
attr measurement "$leaderSpeed=120, $controller=1, $CACCSpacing=7, $sController=\"CACC\", $attacker=1, $attackStart=31.5, $attackSpeed=150, $attackPos=7, $attackAcc=-30, $0=7, $1=0, $nCars=8, $platoonSize=8, $nLanes=1, $beaconInterval=0.1, $priority=2, $packetSize=200, $ploegH=0.5, $leaderHeadway=1.2, $fakeSpeed=(1 == 3), $fakeAcc=(1 == 4), $fakePos=(1 == 2)"
attr nCars 8
attr nLanes 1
attr network scenario
attr packetSize 200
attr platoonSize 8
attr ploegH 0.5
attr priority 2
attr processid 21470
attr repetition 1
attr replication #1
attr resultdir results
attr runnumber 496
attr sController "\"CACC\""
attr seedset 1
param **.coreDebug false
param **.debug false
param **.headway 0.1s
param **.numberOfCars 8
param **.numberOfCarsPerPlatoon 8
param **.numberOfLanes 1
param **.numericController 1
param **.traffic.nCars 8
param **.traffic.nLanes 1
param **.traffic.platoonInsertDistance 7m
param **.traffic.platoonInsertHeadway 0s
param **.traffic.platoonInsertSpeed 120kmph
param **.traffic.platoonInsertTime "1 s"
param **.traffic.platoonLeaderHeadway 1.2s
param **.traffic.platoonSize 8
param **.traffic.platooningVType "\"vtypeauto\""
param **.traffic_type "\"PlatoonsTrafficManager\""
param *.**.nic.mac1609_4.bitrate 6Mbps
param *.**.nic.mac1609_4.txPower 100mW
param *.**.nic.mac1609_4.useServiceChannel false
param *.**.nic.phy80211p.analogueModels "xmldoc(\"config.xml\")"
param *.**.nic.phy80211p.decider "xmldoc(\"config.xml\")"
param *.**.nic.phy80211p.maxTXPower 100mW
param *.**.nic.phy80211p.sensitivity -94dBm
param *.**.nic.phy80211p.thermalNoise -95dBm
param *.**.nic.phy80211p.usePropagationDelay true
param *.**.nic.phy80211p.useThermalNoise true
param *.annotations.draw false
param *.connectionManager.alpha 2.0
param *.connectionManager.carrierFrequency "5.890e9 Hz"
param *.connectionManager.pMax 100mW
param *.connectionManager.sat -94dBm
param *.connectionManager.sendDirect true
param *.manager.autoShutdown true
param *.manager.commandLine "\"sumo --remote-port $port --seed $seed --configuration-file $configFile\""
param *.manager.configFile "\"./sumocfg/freeway.sumo.cfg\""
param *.manager.host "\"localhost\""
param *.manager.margin 25
param *.manager.moduleDisplayString "\"\""
param *.manager.moduleName "\"node\""
param *.manager.moduleType "\"Car\""
param *.manager.updateInterval 0.01s
param *.node[*].appl.attackStart 31.5s
param *.node[*].appl.attackerType 1
param *.node[*].appl.simulationDuration "60 s"
param *.node[*].appl_type "\"SimplePlatooningApp\""
param *.node[*].helper.nCars 8
param *.node[*].helper.nLanes 1
param *.node[*].helper.platoonSize 8
param *.node[*].helper_type "\"PositionHelper\""
param *.node[*].mobility.x 0
param *.node[*].mobility.y 0
param *.node[*].mobility.z 1.895
param *.node[*].prot.attackStart 31.5s
param *.node[*].prot.attackerType 1
param *.node[*].prot.attackingNode 3
param *.node[*].prot.beaconingInterval 0.1s
param *.node[*].prot.fakeAcc "(1 == 4)"
param *.node[*].prot.fakePos "(1 == 2)"
param *.node[*].prot.fakeSpeed "(1 == 3)"
param *.node[*].prot.maliciousAcc "-30 mpss"
param *.node[*].prot.maliciousSpeed 150kmph
param *.node[*].prot.packetSize 200
param *.node[*].prot.priority 2
param *.node[*].prot.shiftX "7 m"
param *.node[*].prot.useControllerAcceleration true
param *.node[*].protocol_type "\"SimplePlatooningBeaconing\""
param *.node[*].scenario.accHeadway 0.1s
param *.node[*].scenario.caccC1 0.5
param *.node[*].scenario.caccOmegaN "0.2 Hz"
param *.node[*].scenario.caccSpacing 7m
param *.node[*].scenario.caccXi 1
param *.node[*].scenario.controller "\"CACC\""
param *.node[*].scenario.engineTau "0.5 s"
param *.node[*].scenario.leaderHeadway 1.2s
param *.node[*].scenario.leaderOscillationFrequency "0.2 Hz"
param *.node[*].scenario.leaderSpeed 120kmph
param *.node[*].scenario.oscillationAmplitude "10 kmph"
param *.node[*].scenario.ploegH 0.5s
param *.node[*].scenario.ploegKd 0.7
param *.node[*].scenario.ploegKp 0.2
param *.node[*].scenario.startOscillating "5 s"
param *.node[*].scenario.useRealisticEngine false
param *.node[*].scenario_type "\"SinusoidalScenario\""
param *.node[*].unicast.packetLossRate 0
param *.obstacles.debug false
param *.playgroundSizeX 65000m
param *.playgroundSizeY 25000m
param *.playgroundSizeZ 50m
param *.world.use2D false
param *.world.useTorus false

vector 0  scenario.node[0].appl  distance  ETV
vector 1  scenario.node[0].appl  relativeSpeed  ETV
vector 2  scenario.node[0].appl  nodeId  ETV
vector 6  scenario.node[0].appl  acceleration  ETV
vector 7  scenario.node[0].appl  controllerAcceleration  ETV
vector 3  scenario.node[0].appl  speed  ETV
vector 4  scenario.node[0].appl  posx  ETV
vector 5  scenario.node[0].appl  posy  ETV
vector 22  scenario.node[1].appl  distance  ETV
vector 23  scenario.node[1].appl  relativeSpeed  ETV
vector 24  scenario.node[1].appl  nodeId  ETV
vector 28  scenario.node[1].appl  acceleration  ETV
vector 29  scenario.node[1].appl  controllerAcceleration  ETV
vector 25  scenario.node[1].appl  speed  ETV
vector 26  scenario.node[1].appl  posx  ETV
vector 27  scenario.node[1].appl  posy  ETV
vector 44  scenario.node[2].appl  distance  ETV
vector 45  scenario.node[2].appl  relativeSpeed  ETV
vector 46  scenario.node[2].appl  nodeId  ETV
vector 50  scenario.node[2].appl  acceleration  ETV
vector 51  scenario.node[2].appl  controllerAcceleration  ETV
vector 47  scenario.node[2].appl  speed  ETV
vector 48  scenario.node[2].appl  posx  ETV
vector 49  scenario.node[2].appl  posy  ETV
vector 66  scenario.node[3].appl  distance  ETV
vector 67  scenario.node[3].appl  relativeSpeed  ETV
vector 68  scenario.node[3].appl  nodeId  ETV
vector 72  scenario.node[3].appl  acceleration  ETV
vector 73  scenario.node[3].appl  controllerAcceleration  ETV
vector 69  scenario.node[3].appl  speed  ETV
vector 70  scenario.node[3].appl  posx  ETV
vector 71  scenario.node[3].appl  posy  ETV
vector 88  scenario.node[4].appl  distance  ETV
vector 89  scenario.node[4].appl  relativeSpeed  ETV
vector 90  scenario.node[4].appl  nodeId  ETV
vector 94  scenario.node[4].appl  acceleration  ETV
vector 95  scenario.node[4].appl  controllerAcceleration  ETV
vector 91  scenario.node[4].appl  speed  ETV
vector 92  scenario.node[4].appl  posx  ETV
vector 93  scenario.node[4].appl  posy  ETV
vector 110  scenario.node[5].appl  distance  ETV
vector 111  scenario.node[5].appl  relativeSpeed  ETV
vector 112  scenario.node[5].appl  nodeId  ETV
vector 116  scenario.node[5].appl  acceleration  ETV
vector 117  scenario.node[5].appl  controllerAcceleration  ETV
vector 113  scenario.node[5].appl  speed  ETV
vector 114  scenario.node[5].appl  posx  ETV
vector 115  scenario.node[5].appl  posy  ETV
vector 132  scenario.node[6].appl  distance  ETV
vector 133  scenario.node[6].appl  relativeSpeed  ETV
vector 134  scenario.node[6].appl  nodeId  ETV
vector 138  scenario.node[6].appl  acceleration  ETV
vector 139  scenario.node[6].appl  controllerAcceleration  ETV
vector 135  scenario.node[6].appl  speed  ETV
vector 136  scenario.node[6].appl  posx  ETV
vector 137  scenario.node[6].appl  posy  ETV
vector 154  scenario.node[7].appl  distance  ETV
vector 155  scenario.node[7].appl  relativeSpeed  ETV
vector 156  scenario.node[7].appl  nodeId  ETV
vector 160  scenario.node[7].appl  acceleration  ETV
vector 161  scenario.node[7].appl  controllerAcceleration  ETV
vector 157  scenario.node[7].appl  speed  ETV
vector 158  scenario.node[7].appl  posx  ETV
vector 159  scenario.node[7].appl  posy  ETV
vector 58  scenario.node[2].prot  frontDelay  ETV
vector 56  scenario.node[2].prot  frontDelayId  ETV
vector 102  scenario.node[4].prot  frontDelay  ETV
vector 100  scenario.node[4].prot  frontDelayId  ETV
vector 146  scenario.node[6].prot  frontDelay  ETV
vector 144  scenario.node[6].prot  frontDelayId  ETV
vector 168  scenario.node[7].prot  frontDelay  ETV
vector 166  scenario.node[7].prot  frontDelayId  ETV
vector 124  scenario.node[5].prot  frontDelay  ETV
vector 122  scenario.node[5].prot  frontDelayId  ETV
vector 35  scenario.node[1].prot  leaderDelay  ETV
vector 33  scenario.node[1].prot  leaderDelayId  ETV
vector 36  scenario.node[1].prot  frontDelay  ETV
vector 34  scenario.node[1].prot  frontDelayId  ETV
vector 57  scenario.node[2].prot  leaderDelay  ETV
vector 55  scenario.node[2].prot  leaderDelayId  ETV
vector 79  scenario.node[3].prot  leaderDelay  ETV
vector 77  scenario.node[3].prot  leaderDelayId  ETV
vector 101  scenario.node[4].prot  leaderDelay  ETV
vector 99  scenario.node[4].prot  leaderDelayId  ETV
vector 123  scenario.node[5].prot  leaderDelay  ETV
vector 121  scenario.node[5].prot  leaderDelayId  ETV
vector 145  scenario.node[6].prot  leaderDelay  ETV
vector 143  scenario.node[6].prot  leaderDelayId  ETV
vector 167  scenario.node[7].prot  leaderDelay  ETV
vector 165  scenario.node[7].prot  leaderDelayId  ETV
vector 80  scenario.node[3].prot  frontDelay  ETV
vector 78  scenario.node[3].prot  frontDelayId  ETV
vector 8  scenario.node[0].prot  nodeId  ETV
vector 9  scenario.node[0].prot  busyTime  ETV
vector 10  scenario.node[0].prot  collisions  ETV
vector 30  scenario.node[1].prot  nodeId  ETV
vector 31  scenario.node[1].prot  busyTime  ETV
vector 32  scenario.node[1].prot  collisions  ETV
vector 52  scenario.node[2].prot  nodeId  ETV
vector 53  scenario.node[2].prot  busyTime  ETV
vector 54  scenario.node[2].prot  collisions  ETV
vector 74  scenario.node[3].prot  nodeId  ETV
vector 75  scenario.node[3].prot  busyTime  ETV
vector 76  scenario.node[3].prot  collisions  ETV
vector 96  scenario.node[4].prot  nodeId  ETV
vector 97  scenario.node[4].prot  busyTime  ETV
vector 98  scenario.node[4].prot  collisions  ETV
vector 118  scenario.node[5].prot  nodeId  ETV
vector 119  scenario.node[5].prot  busyTime  ETV
vector 120  scenario.node[5].prot  collisions  ETV
vector 140  scenario.node[6].prot  nodeId  ETV
vector 141  scenario.node[6].prot  busyTime  ETV
vector 142  scenario.node[6].prot  collisions  ETV
vector 162  scenario.node[7].prot  nodeId  ETV
vector 163  scenario.node[7].prot  busyTime  ETV
vector 164  scenario.node[7].prot  collisions  ETV
7	11244 8180 232 190960 1.11 35.31 343 -1.5 1.5 -8.6779559958661 546.10883058508
6	19424 10767 232 190960 1.11 35.31 343 -1.4722746795918 1.4513407705138 -12.2278693613 366.70147146699
5	30191 6915 232 190960 1.11 35.31 343 36.55 36.55 12536.65 458214.5575
4	37106 10305 232 190960 1.11 35.31 343 112.93872566263 1256.7462258199 235355.42932625 199109359.44313
3	47411 10308 232 190960 1.11 35.31 343 32.043531245463 35.298048086563 11470.976610665 383880.98101575
1	57719 5543 232 190960 1.11 35.31 343 0 0 0 0
0	63262 5886 232 190960 1.11 35.31 343 -1 -1 -343 343
2	69148 5543 232 190960 1.11 35.31 343 0 0 0 0
10	74691 483 5168 189212 2 35 34 0 0 0 0
9	75174 654 5168 189212 2 35 34 0.023297 0.02625 0.889547 0.023281812709
8	75828 449 5168 189212 2 35 34 0 0 0 0
51	76277 11030 234 190962 1.11 35.31 343 -1.5092135990203 1.5122039605917 37.974365496355 505.3176605551
50	87307 11068 234 190962 1.11 35.31 343 -1.4841297256552 1.4672918306232 36.118816417855 361.68603996001
49	98375 7258 234 190962 1.11 35.31 343 36.55 36.55 12536.65 458214.5575
48	105633 10657 234 190962 1.11 35.31 343 90.938725662231 1242.1268073308 227869.25327811 189079328.77585
47	116290 10646 234 190962 1.11 35.31 343 32.037539659779 36.929662562185 11546.475929566 389108.96262419
45	126936 11818 234 190962 1.11 35.31 343 -0.47597276761095 0.01224105552933 -6.1853839979402 1.8803378635912
44	138754 10631 234 190962 1.11 35.31 343 6.4390365661422 7.0331338946908 2399.1841735335 16783.344504275
46	149385 5886 234 190962 1.11 35.31 343 2 2 686 1372
58	155271 13653 832 191004 1.212435623764 35.312434490578 342 0.099998531701 0.100011589131 34.199997453886 3.4199994963539
57	168924 13604 1244 190859 1.297802137452 35.297802420984 341 0.099998532012 0.100011589132 34.099998870604 3.4099997796957
56	182528 9251 832 191004 1.212435623764 35.312434490578 342 2 2 684 1368
55	191779 9220 1244 190859 1.297802137452 35.297802420984 341 2 2 682 1364
54	200999 483 5170 189214 2 35 34 0 0 0 0
53	201482 688 5170 189214 2 35 34 0.023296 0.02625 0.889546 0.023281766116
52	202170 483 5170 189214 2 35 34 2 2 68 136
73	202653 11006 235 190963 1.11 35.31 343 -1.4954488831537 1.4986508830663 41.232488032744 496.09442344898
72	213659 11043 235 190963 1.11 35.31 343 -1.4697266158876 1.4522492473787 38.807890350351 359.69943287902
71	224702 7258 235 190963 1.11 35.31 343 36.55 36.55 12536.65 458214.5575
70	231960 10644 235 190963 1.11 35.31 343 79.938725662231 1231.3737859275 224094.69143923 184108140.47938
69	242604 10647 235 190963 1.11 35.31 343 32.052330667067 37.192933748243 11549.038941838 389293.7753919
67	253251 11667 235 190963 1.11 35.31 343 -0.2670577360724 0.021653895288964 -2.9242004361361 0.55435284927418
66	264918 10642 235 190963 1.11 35.31 343 6.7582868270058 7.0520780830358 2402.6130991231 16829.96381963
68	275560 5886 235 190963 1.11 35.31 343 3 3 1029 3087
80	281446 13638 1312 190928 1.307224174144 35.307224456861 341 0.099998531926 0.100011589303 34.099998869789 3.409999779532
79	295084 13605 1250 190865 1.297802174144 35.29780245687 341 0.099998531928 0.100011589131 34.099998869798 3.4099997795345
78	308689 9238 1312 190928 1.307224174144 35.307224456861 341 3 3 1023 3069
77	317927 9206 1250 190865 1.297802174144 35.29780245687 341 3 3 1023 3069
76	327133 483 5171 189215 2 35 34 0 0 0 0
75	327616 688 5171 189215 2 35 34 0.023297 0.02625 0.889547 0.023281812709
74	328304 483 5171 189215 2 35 34 3 3 102 306
95	328787 11004 236 190964 1.11 35.31 343 -1.501573437583 1.5060862754308 43.546358820792 506.67201953962
94	339791 11069 236 190964 1.11 35.31 343 -1.4671620087128 1.4503898313293 40.357878556369 361.67211897457
93	350860 7258 236 190964 1.11 35.31 343 36.55 36.55 12536.65 458214.5575
92	358118 10641 236 190964 1.11 35.31 343 68.938725662231 1220.5308070559 220320.0188489 179218766.73018
91	368759 10646 236 190964 1.11 35.31 343 32.053768425274 37.341357449813 11550.66216383 389412.78493435
89	379405 11727 236 190964 1.11 35.31 343 -0.1537342718137 0.015827613819276 -2.011300895262 0.21067934893588
88	391132 10617 236 190964 1.11 35.31 343 6.8459473456473 7.0167041099231 2402.7050547691 16831.021635987
90	401749 5886 236 190964 1.11 35.31 343 4 4 1372 5488
102	407635 14001 902 191074 1.235039697148 35.335038562604 342 0.099998531566 0.100011589143 34.199997452528 3.4199994960823
101	421636 13963 1256 190871 1.297802210836 35.297802493048 341 0.09999853188 0.100011589132 34.099998869284 3.4099997794317
100	435599 9587 902 191074 1.235039697148 35.335038562604 342 4 4 1368 5472
99	445186 9226 1256 190871 1.297802210836 35.297802493048 341 4 4 1364 5456
98	454412 483 5172 189216 2 35 34 0 0 0 0
97	454895 688 5172 189216 2 35 34 0.023297 0.02625 0.889547 0.023281812709
96	455583 483 5172 189216 2 35 34 4 4 136 544
117	456066 11352 237 190965 1.11 35.31 343 -1.5284774923645 1.5300606746016 45.495040299599 523.05714577286
116	467418 11416 237 190965 1.11 35.31 343 -1.4661745075166 1.4484846937727 41.122141149661 362.69405740152
115	478834 7601 237 190965 1.11 35.31 343 36.55 36.55 12536.65 458214.5575
114	486435 10991 237 190965 1.11 35.31 343 57.93872756958 1209.5310168944 216543.18114618 174407416.98927
113	497426 10988 237 190965 1.11 35.31 343 32.05570606779 37.416642947935 11550.690645487 389417.5894661
111	508414 11997 237 190965 1.11 35.31 343 -0.08149085220218 0.020930937751231 -0.43206044277615 0.10325014529577
110	520411 10989 237 190965 1.11 35.31 343 6.9767684645172 7.055312978277 2404.8382723555 16860.938056002
112	531400 6229 237 190965 1.11 35.31 343 5 5 1715 8575
124	537629 13966 1178 190793 1.297388953992 35.29738928744 341 0.09999853535 0.100011589313 34.09999892052 3.4099997896782
123	551595 13976 1262 190877 1.297802247528 35.297802529744 341 0.099998531855 0.100011589125 34.099998869288 3.4099997794325
122	565571 9561 1178 190793 1.297388953992 35.29738928744 341 5 5 1705 8525
121	575132 9567 1262 190877 1.297802247528 35.297802529744 341 5 5 1705 8525
120	584699 517 5173 189217 2 35 34 0 0 0 0
119	585216 722 5173 189217 2 35 34 0.023297 0.02625 0.889547 0.023281812709
118	585938 517 5173 189217 2 35 34 5 5 170 850
139	586455 11354 238 190966 1.11 35.31 343 -1.4999727121695 1.5046152650963 45.329465333408 505.64750915887
138	597809 11411 238 190966 1.11 35.31 343 -1.4605505269245 1.443266453655 41.547262785888 360.58071595037
137	609220 7601 238 190966 1.11 35.31 343 36.55 36.55 12536.65 458214.5575
136	616821 10980 238 190966 1.11 35.31 343 46.93872756958 1198.56736175 212767.96861652 169682324.53398
135	627801 10997 238 190966 1.11 35.31 343 32.062141348009 37.455567468805 11551.068393118 389443.53178546
133	638798 12026 238 190966 1.11 35.31 343 -0.045737197514391 0.023301945973785 -0.7889690423209 0.094982035963644
132	650824 10961 238 190966 1.11 35.31 343 6.964433634741 7.0188541738277 2403.220084618 16838.121011771
134	661785 6229 238 190966 1.11 35.31 343 6 6 2058 12348
146	668014 14009 970 191136 1.248712770532 35.348711635857 342 0.099998531528 0.100011589283 34.199997452397 3.4199994960558
145	682023 13956 1268 190883 1.29780228422 35.297802566318 341 0.099998531843 0.100011589129 34.09999886917 3.4099997794089
144	695979 9598 970 191136 1.248712770532 35.348711635857 342 6 6 2052 12312
143	705577 9549 1268 190883 1.29780228422 35.297802566318 341 6 6 2046 12276
142	715126 517 5174 189218 2 35 34 0 0 0 0
141	715643 722 5174 189218 2 35 34 0.023297 0.02625 0.889547 0.023281812709
140	716365 517 5174 189218 2 35 34 6 6 204 1224
161	716882 11354 239 190967 1.11 35.31 343 -1.5093935080758 1.5126459310424 46.008905797482 514.33574915506
160	728236 11402 239 190967 1.11 35.31 343 -1.4619692693401 1.4451435683732 41.835007304959 362.35607253925
159	739638 7601 239 190967 1.11 35.31 343 36.55 36.55 12536.65 458214.5575
158	747239 10992 239 190967 1.11 35.31 343 35.938727092743 1187.6040443135 208993.00860828 165040321.7862
157	758231 11005 239 190967 1.11 35.31 343 32.060042650201 37.483513704008 11551.44490401 389472.11085354
155	769236 12008 239 190967 1.11 35.31 343 -0.035079299157452 0.024254043827852 -0.79198351936527 0.088743529431088
154	781244 10994 239 190967 1.11 35.31 343 6.9638763612204 7.0179695594753 2402.9675384578 16834.584964534
156	792238 6229 239 190967 1.11 35.31 343 7 7 2401 16807
168	798467 13957 1040 190649 1.263893807224 35.263894140903 341 0.09999853542 0.100011589311 34.099998920751 3.4099997897242
167	812424 13957 1274 190889 1.297802320912 35.297802602889 341 0.099998531834 0.10001158913 34.099998869049 3.4099997793847
166	826381 9570 1040 190649 1.263893807224 35.263894140903 341 7 7 2387 16709
165	835951 9567 1274 190889 1.297802320912 35.297802602889 341 7 7 2387 16709
164	845518 517 5175 189219 2 35 34 0 0 0 0
163	846035 722 5175 189219 2 35 34 0.023297 0.02625 0.889547 0.023281812709
162	846757 517 5175 189219 2 35 34 7 7 238 1666
22	847274 10661 233 191176 1.11 35.36 344 0 7.1830419719694 2344.5018609837 16290.617177949
23	857935 11403 233 191176 1.11 35.36 344 -4.3868708490354 0.12598078570946 -73.852732750497 256.82471400553
24	869338 5904 233 191176 1.11 35.36 344 1 1 344 344
25	875242 10674 233 191176 1.11 35.36 344 32.027184001432 36.462411020233 11577.065697432 390015.10887969
26	885916 10681 233 191176 1.11 35.36 344 101.93872566223 1254.3794063083 232894.69940509 195698636.1651
27	896597 7280 233 191176 1.11 35.36 344 36.55 36.55 12573.2 459550.46
28	903877 11099 233 191176 1.11 35.36 344 -1.4954736390223 1.4760592276858 31.409639757614 360.04040760576
29	914976 11059 233 191176 1.11 35.36 344 -1.5555551936108 1.5570065769543 32.66729934319 525.00736350257
30	926035 483 5169 189213 2 35 34 1 1 34 34
31	926518 688 5169 189213 2 35 34 0.023297 0.02625 0.889547 0.023281812709
32	927206 483 5169 189213 2 35 34 0 0 0 0
33	927689 9222 1238 190853 1.29780210076 35.297802386163 341 1 1 341 341
34	936911 9222 1238 190853 1.29780210076 35.297802386163 341 1 1 341 341
35	946133 13625 1238 190853 1.29780210076 35.297802386163 341 0.099998532166 0.100011589132 34.099998872475 3.4099997800699
36	959758 13625 1238 190853 1.29780210076 35.297802386163 341 0.099998532166 0.100011589132 34.099998872475 3.4099997800699
