file 1029243 1501596445                                         
version 2
run SinusoidalJammingDetail-67-20170801-16:07:05-117409
attr CACCSpacing 9
attr attackAcc -30
attr attackPos 7
attr attackSpeed 150
attr attackStart 30.5
attr attacker 1
attr beaconInterval 0.1
attr configname SinusoidalJammingDetail
attr controller 1
attr datetime 20170801-16:07:05
attr experiment SinusoidalJammingDetail
attr fakeAcc "(1 == 4)"
attr fakePos "(1 == 2)"
attr fakeSpeed "(1 == 3)"
attr inifile omnetpp_67.ini
attr iterationvars "$leaderSpeed=50, $controller=1, $CACCSpacing=9, $sController=\"CACC\", $attacker=1, $attackStart=30.5, $attackSpeed=150, $attackPos=7, $attackAcc=-30, $0=9, $1=0, $nCars=8, $platoonSize=8, $nLanes=1, $beaconInterval=0.1, $priority=2, $packetSize=200, $ploegH=0.5, $leaderHeadway=1.2, $fakeSpeed=(1 == 3), $fakeAcc=(1 == 4), $fakePos=(1 == 2)"
attr iterationvarsf leaderSpeed=50,controller=1,CACCSpacing=9,sController=CACC,attacker=1,attackStart=30.5,attackSpeed=150,attackPos=7,attackAcc=-30,9,0,nCars=8,platoonSize=8,nLanes=1,beaconInterval=0.1,priority=2,packetSize=200,ploegH=0.5,leaderHeadway=1.2,fakeSpeed=(1_==_3),fakeAcc=(1_==_4),fakePos=(1_==_2)-
attr leaderHeadway 1.2
attr leaderSpeed 50
attr measurement "$leaderSpeed=50, $controller=1, $CACCSpacing=9, $sController=\"CACC\", $attacker=1, $attackStart=30.5, $attackSpeed=150, $attackPos=7, $attackAcc=-30, $0=9, $1=0, $nCars=8, $platoonSize=8, $nLanes=1, $beaconInterval=0.1, $priority=2, $packetSize=200, $ploegH=0.5, $leaderHeadway=1.2, $fakeSpeed=(1 == 3), $fakeAcc=(1 == 4), $fakePos=(1 == 2)"
attr nCars 8
attr nLanes 1
attr network scenario
attr packetSize 200
attr platoonSize 8
attr ploegH 0.5
attr priority 2
attr processid 117409
attr repetition 2
attr replication #2
attr resultdir results
attr runnumber 67
attr sController "\"CACC\""
attr seedset 2
param **.coreDebug false
param **.debug false
param **.headway 0.1s
param **.numberOfCars 8
param **.numberOfCarsPerPlatoon 8
param **.numberOfLanes 1
param **.numericController 1
param **.traffic.nCars 8
param **.traffic.nLanes 1
param **.traffic.platoonInsertDistance 9m
param **.traffic.platoonInsertHeadway 0s
param **.traffic.platoonInsertSpeed 50kmph
param **.traffic.platoonInsertTime "1 s"
param **.traffic.platoonLeaderHeadway 1.2s
param **.traffic.platoonSize 8
param **.traffic.platooningVType "\"vtypeauto\""
param **.traffic_type "\"PlatoonsTrafficManager\""
param *.**.nic.mac1609_4.bitrate 6Mbps
param *.**.nic.mac1609_4.txPower 100mW
param *.**.nic.mac1609_4.useServiceChannel false
param *.**.nic.phy80211p.analogueModels "xmldoc(\"config.xml\")"
param *.**.nic.phy80211p.decider "xmldoc(\"config.xml\")"
param *.**.nic.phy80211p.maxTXPower 100mW
param *.**.nic.phy80211p.sensitivity -94dBm
param *.**.nic.phy80211p.thermalNoise -95dBm
param *.**.nic.phy80211p.usePropagationDelay true
param *.**.nic.phy80211p.useThermalNoise true
param *.annotations.draw false
param *.connectionManager.alpha 2.0
param *.connectionManager.carrierFrequency "5.890e9 Hz"
param *.connectionManager.pMax 100mW
param *.connectionManager.sat -94dBm
param *.connectionManager.sendDirect true
param *.manager.autoShutdown true
param *.manager.commandLine "\"sumo --remote-port $port --seed $seed --configuration-file $configFile\""
param *.manager.configFile "\"./sumocfg/freeway.sumo.cfg\""
param *.manager.host "\"localhost\""
param *.manager.margin 25
param *.manager.moduleDisplayString "\"\""
param *.manager.moduleName "\"node\""
param *.manager.moduleType "\"Car\""
param *.manager.updateInterval 0.01s
param *.node[*].appl.attackStart 30.5s
param *.node[*].appl.attackerType 1
param *.node[*].appl.simulationDuration "60 s"
param *.node[*].appl_type "\"SimplePlatooningApp\""
param *.node[*].helper.nCars 8
param *.node[*].helper.nLanes 1
param *.node[*].helper.platoonSize 8
param *.node[*].helper_type "\"PositionHelper\""
param *.node[*].mobility.x 0
param *.node[*].mobility.y 0
param *.node[*].mobility.z 1.895
param *.node[*].prot.attackStart 30.5s
param *.node[*].prot.attackerType 1
param *.node[*].prot.attackingNode 3
param *.node[*].prot.beaconingInterval 0.1s
param *.node[*].prot.fakeAcc "(1 == 4)"
param *.node[*].prot.fakePos "(1 == 2)"
param *.node[*].prot.fakeSpeed "(1 == 3)"
param *.node[*].prot.maliciousAcc "-30 mpss"
param *.node[*].prot.maliciousSpeed 150kmph
param *.node[*].prot.packetSize 200
param *.node[*].prot.priority 2
param *.node[*].prot.shiftX "7 m"
param *.node[*].prot.useControllerAcceleration true
param *.node[*].protocol_type "\"SimplePlatooningBeaconing\""
param *.node[*].scenario.accHeadway 0.1s
param *.node[*].scenario.caccC1 0.5
param *.node[*].scenario.caccOmegaN "0.2 Hz"
param *.node[*].scenario.caccSpacing 9m
param *.node[*].scenario.caccXi 1
param *.node[*].scenario.controller "\"CACC\""
param *.node[*].scenario.engineTau "0.5 s"
param *.node[*].scenario.leaderHeadway 1.2s
param *.node[*].scenario.leaderOscillationFrequency "0.2 Hz"
param *.node[*].scenario.leaderSpeed 50kmph
param *.node[*].scenario.oscillationAmplitude "10 kmph"
param *.node[*].scenario.ploegH 0.5s
param *.node[*].scenario.ploegKd 0.7
param *.node[*].scenario.ploegKp 0.2
param *.node[*].scenario.startOscillating "5 s"
param *.node[*].scenario.useRealisticEngine false
param *.node[*].scenario_type "\"SinusoidalScenario\""
param *.node[*].unicast.packetLossRate 0
param *.obstacles.debug false
param *.playgroundSizeX 65000m
param *.playgroundSizeY 25000m
param *.playgroundSizeZ 50m
param *.world.use2D false
param *.world.useTorus false

vector 0  scenario.node[0].appl  distance  ETV
vector 1  scenario.node[0].appl  relativeSpeed  ETV
vector 2  scenario.node[0].appl  nodeId  ETV
vector 6  scenario.node[0].appl  acceleration  ETV
vector 7  scenario.node[0].appl  controllerAcceleration  ETV
vector 3  scenario.node[0].appl  speed  ETV
vector 4  scenario.node[0].appl  posx  ETV
vector 5  scenario.node[0].appl  posy  ETV
vector 22  scenario.node[1].appl  distance  ETV
vector 23  scenario.node[1].appl  relativeSpeed  ETV
vector 24  scenario.node[1].appl  nodeId  ETV
vector 28  scenario.node[1].appl  acceleration  ETV
vector 29  scenario.node[1].appl  controllerAcceleration  ETV
vector 25  scenario.node[1].appl  speed  ETV
vector 26  scenario.node[1].appl  posx  ETV
vector 27  scenario.node[1].appl  posy  ETV
vector 44  scenario.node[2].appl  distance  ETV
vector 45  scenario.node[2].appl  relativeSpeed  ETV
vector 46  scenario.node[2].appl  nodeId  ETV
vector 50  scenario.node[2].appl  acceleration  ETV
vector 51  scenario.node[2].appl  controllerAcceleration  ETV
vector 47  scenario.node[2].appl  speed  ETV
vector 48  scenario.node[2].appl  posx  ETV
vector 49  scenario.node[2].appl  posy  ETV
vector 66  scenario.node[3].appl  distance  ETV
vector 67  scenario.node[3].appl  relativeSpeed  ETV
vector 68  scenario.node[3].appl  nodeId  ETV
vector 72  scenario.node[3].appl  acceleration  ETV
vector 73  scenario.node[3].appl  controllerAcceleration  ETV
vector 69  scenario.node[3].appl  speed  ETV
vector 70  scenario.node[3].appl  posx  ETV
vector 71  scenario.node[3].appl  posy  ETV
vector 88  scenario.node[4].appl  distance  ETV
vector 89  scenario.node[4].appl  relativeSpeed  ETV
vector 90  scenario.node[4].appl  nodeId  ETV
vector 94  scenario.node[4].appl  acceleration  ETV
vector 95  scenario.node[4].appl  controllerAcceleration  ETV
vector 91  scenario.node[4].appl  speed  ETV
vector 92  scenario.node[4].appl  posx  ETV
vector 93  scenario.node[4].appl  posy  ETV
vector 110  scenario.node[5].appl  distance  ETV
vector 111  scenario.node[5].appl  relativeSpeed  ETV
vector 112  scenario.node[5].appl  nodeId  ETV
vector 116  scenario.node[5].appl  acceleration  ETV
vector 117  scenario.node[5].appl  controllerAcceleration  ETV
vector 113  scenario.node[5].appl  speed  ETV
vector 114  scenario.node[5].appl  posx  ETV
vector 115  scenario.node[5].appl  posy  ETV
vector 132  scenario.node[6].appl  distance  ETV
vector 133  scenario.node[6].appl  relativeSpeed  ETV
vector 134  scenario.node[6].appl  nodeId  ETV
vector 138  scenario.node[6].appl  acceleration  ETV
vector 139  scenario.node[6].appl  controllerAcceleration  ETV
vector 135  scenario.node[6].appl  speed  ETV
vector 136  scenario.node[6].appl  posx  ETV
vector 137  scenario.node[6].appl  posy  ETV
vector 154  scenario.node[7].appl  distance  ETV
vector 155  scenario.node[7].appl  relativeSpeed  ETV
vector 156  scenario.node[7].appl  nodeId  ETV
vector 160  scenario.node[7].appl  acceleration  ETV
vector 161  scenario.node[7].appl  controllerAcceleration  ETV
vector 157  scenario.node[7].appl  speed  ETV
vector 158  scenario.node[7].appl  posx  ETV
vector 159  scenario.node[7].appl  posy  ETV
vector 168  scenario.node[7].prot  frontDelay  ETV
vector 166  scenario.node[7].prot  frontDelayId  ETV
vector 146  scenario.node[6].prot  frontDelay  ETV
vector 144  scenario.node[6].prot  frontDelayId  ETV
vector 35  scenario.node[1].prot  leaderDelay  ETV
vector 33  scenario.node[1].prot  leaderDelayId  ETV
vector 36  scenario.node[1].prot  frontDelay  ETV
vector 34  scenario.node[1].prot  frontDelayId  ETV
vector 57  scenario.node[2].prot  leaderDelay  ETV
vector 55  scenario.node[2].prot  leaderDelayId  ETV
vector 79  scenario.node[3].prot  leaderDelay  ETV
vector 77  scenario.node[3].prot  leaderDelayId  ETV
vector 101  scenario.node[4].prot  leaderDelay  ETV
vector 99  scenario.node[4].prot  leaderDelayId  ETV
vector 123  scenario.node[5].prot  leaderDelay  ETV
vector 121  scenario.node[5].prot  leaderDelayId  ETV
vector 145  scenario.node[6].prot  leaderDelay  ETV
vector 143  scenario.node[6].prot  leaderDelayId  ETV
vector 167  scenario.node[7].prot  leaderDelay  ETV
vector 165  scenario.node[7].prot  leaderDelayId  ETV
vector 102  scenario.node[4].prot  frontDelay  ETV
vector 100  scenario.node[4].prot  frontDelayId  ETV
vector 80  scenario.node[3].prot  frontDelay  ETV
vector 78  scenario.node[3].prot  frontDelayId  ETV
vector 124  scenario.node[5].prot  frontDelay  ETV
vector 122  scenario.node[5].prot  frontDelayId  ETV
vector 58  scenario.node[2].prot  frontDelay  ETV
vector 56  scenario.node[2].prot  frontDelayId  ETV
vector 8  scenario.node[0].prot  nodeId  ETV
vector 9  scenario.node[0].prot  busyTime  ETV
vector 10  scenario.node[0].prot  collisions  ETV
vector 30  scenario.node[1].prot  nodeId  ETV
vector 31  scenario.node[1].prot  busyTime  ETV
vector 32  scenario.node[1].prot  collisions  ETV
vector 52  scenario.node[2].prot  nodeId  ETV
vector 53  scenario.node[2].prot  busyTime  ETV
vector 54  scenario.node[2].prot  collisions  ETV
vector 74  scenario.node[3].prot  nodeId  ETV
vector 75  scenario.node[3].prot  busyTime  ETV
vector 76  scenario.node[3].prot  collisions  ETV
vector 96  scenario.node[4].prot  nodeId  ETV
vector 97  scenario.node[4].prot  busyTime  ETV
vector 98  scenario.node[4].prot  collisions  ETV
vector 118  scenario.node[5].prot  nodeId  ETV
vector 119  scenario.node[5].prot  busyTime  ETV
vector 120  scenario.node[5].prot  collisions  ETV
vector 140  scenario.node[6].prot  nodeId  ETV
vector 141  scenario.node[6].prot  busyTime  ETV
vector 142  scenario.node[6].prot  collisions  ETV
vector 162  scenario.node[7].prot  nodeId  ETV
vector 163  scenario.node[7].prot  busyTime  ETV
vector 164  scenario.node[7].prot  collisions  ETV
7	11237 8590 232 201559 1.11 37.21 362 -1.5 1.5 16.33267074593 582.34230505052
6	19827 11357 232 201559 1.11 37.21 362 -1.472274679513 1.4513430531444 10.978975316441 396.02974094067
5	31184 7314 232 201559 1.11 37.21 362 36.55 36.55 13231.1 483596.705
4	38498 10889 232 201559 1.11 37.21 362 127.28219184862 632.11865825916 137996.44494834 60336194.594215
3	49387 10892 232 201559 1.11 37.21 362 12.59908680102 15.853603639796 5062.6301360814 71068.627190265
1	60279 5866 232 201559 1.11 37.21 362 0 0 0 0
0	66145 6228 232 201559 1.11 37.21 362 -1 -1 -362 362
2	72373 5866 232 201559 1.11 37.21 362 0 0 0 0
10	78239 513 5168 200368 2 37 36 0 0 0 0
9	78752 694 5168 200368 2 37 36 0.023297 0.02625 0.942047 0.024659937709
8	79446 477 5168 200368 2 37 36 0 0 0 0
51	79923 11676 234 201561 1.11 37.21 362 -1.4963007021727 1.4967154674433 28.878029889674 480.37221621695
50	91599 11712 234 201561 1.11 37.21 362 -1.4778825427145 1.4525906674203 29.16651998326 342.12023355129
49	103311 7676 234 201561 1.11 37.21 362 36.55 36.55 13231.1 483596.705
48	110987 11258 234 201561 1.11 37.21 362 101.28219184875 617.36645983923 128790.79144477 53653590.591316
47	122245 11251 234 201561 1.11 37.21 362 12.597840075248 16.810078068701 5175.7526743069 74457.145336255
45	133496 12369 234 201561 1.11 37.21 362 -0.83137320628221 0.017598417894884 -23.16080986003 13.084516333036
44	145865 11246 234 201561 1.11 37.21 362 6.7506093639647 9.0458888174636 3217.8056507446 28654.938162952
46	157111 6228 234 201561 1.11 37.21 362 2 2 724 1448
58	163339 14410 1312 201527 1.302596734534 37.202608962483 360 0.099998824849 0.100011956688 36.000011181943 3.6000022410347
57	177749 14397 1040 201254 1.262217387628 37.162216654135 360 0.099998822602 0.100011956315 35.999998220501 3.599999648606
56	192146 9765 1312 201527 1.302596734534 37.202608962483 360 2 2 720 1440
55	201911 9755 1040 201254 1.262217387628 37.162216654135 360 2 2 720 1440
54	211666 513 5170 200370 2 37 36 0 0 0 0
53	212179 730 5170 200370 2 37 36 0.023297 0.02625 0.942047 0.024659937709
52	212909 513 5170 200370 2 37 36 2 2 72 144
73	213422 11674 235 201562 1.11 37.21 362 -1.5144504452241 1.5154441413489 35.720223157507 496.53675933082
72	225096 11702 235 201562 1.11 37.21 362 -1.4663369315091 1.4406082217132 34.918117868694 342.07995290853
71	236798 7676 235 201562 1.11 37.21 362 36.55 36.55 13231.1 483596.705
70	244474 11252 235 201562 1.11 37.21 362 88.282188034058 605.74371565468 124107.38890047 50393593.887799
69	255726 11263 235 201562 1.11 37.21 362 12.60945130629 17.376341655206 5189.7253419043 74920.105928385
67	266989 12441 235 201562 1.11 37.21 362 -0.56899095216898 0.014948393498582 -14.264332797177 5.2610782707735
66	279430 11262 235 201562 1.11 37.21 362 7.6341287823619 9.0406547474132 3235.6819976536 28939.486219569
68	290692 6228 235 201562 1.11 37.21 362 3 3 1086 3258
80	296920 14411 1176 201390 1.287873517717 37.18787277067 360 0.09999882204 0.100011956683 35.999998206947 3.5999996458969
79	311331 14410 1046 201260 1.262217430991 37.162216692999 360 0.099998822415 0.100011956313 35.999998216002 3.5999996477062
78	325741 9766 1176 201390 1.287873517717 37.18787277067 360 3 3 1080 3240
77	335507 9754 1046 201260 1.262217430991 37.162216692999 360 3 3 1080 3240
76	345261 513 5171 200371 2 37 36 0 0 0 0
75	345774 730 5171 200371 2 37 36 0.023297 0.02625 0.942047 0.024659937709
74	346504 513 5171 200371 2 37 36 3 3 108 324
95	347017 11661 236 201563 1.11 37.21 362 -1.5000260611199 1.5032357041695 39.957409375445 490.76848567234
94	358678 11718 236 201563 1.11 37.21 362 -1.4562064440366 1.4309616980489 38.71079221767 341.3004018157
93	370396 7676 236 201563 1.11 37.21 362 36.55 36.55 13231.1 483596.705
92	378072 11257 236 201563 1.11 37.21 362 75.282188034058 593.56443441414 119413.55251472 47242852.992769
91	389329 11244 236 201563 1.11 37.21 362 12.619779769425 17.750774898563 5198.0643881438 75201.111904315
89	400573 12383 236 201563 1.11 37.21 362 -0.37532058088648 0.014322353978537 -8.6882274182596 2.0400060252182
88	412956 11247 236 201563 1.11 37.21 362 8.1867699054069 9.0268462804961 3246.0031666713 29112.420421045
90	424203 6228 236 201563 1.11 37.21 362 4 4 1448 5792
102	430431 14772 1108 201322 1.276579474354 37.176578733675 360 0.099998822293 0.100011956681 35.999998213315 3.5999996471705
101	445203 14758 1052 201266 1.262217474354 37.162216733687 360 0.099998822293 0.100011956313 35.999998213327 3.5999996471712
100	459961 10125 1108 201322 1.276579474354 37.176578733675 360 4 4 1440 5760
99	470086 9755 1052 201266 1.262217474354 37.162216733687 360 4 4 1440 5760
98	479841 513 5172 200372 2 37 36 0 0 0 0
97	480354 730 5172 200372 2 37 36 0.023297 0.02625 0.942047 0.024659937709
96	481084 513 5172 200372 2 37 36 4 4 144 576
117	481597 12037 237 201564 1.11 37.21 362 -1.5085423921077 1.5107019140261 43.026285618068 501.55651672562
116	493634 12075 237 201564 1.11 37.21 362 -1.4566506927771 1.4330842509356 41.133471634342 346.05325377208
115	505709 8038 237 201564 1.11 37.21 362 36.55 36.55 13231.1 483596.705
114	513747 11621 237 201564 1.11 37.21 362 62.282188034058 581.10645095501 114715.64401263 44208931.62848
113	525368 11619 237 201564 1.11 37.21 362 12.614827557157 17.991279384381 5203.5692324454 75391.131769871
111	536987 12632 237 201564 1.11 37.21 362 -0.24235225783131 0.032962693227423 -5.8919522237154 0.98091465613434
110	549619 11599 237 201564 1.11 37.21 362 8.4627935488511 9.0245323999359 3250.0185989767 29181.29556382
112	561218 6590 237 201564 1.11 37.21 362 5 5 1810 9050
124	567808 14749 1244 201458 1.297503604444 37.197502852904 360 0.099998821838 0.100011956669 35.999998202454 3.599999644998
123	582557 14743 1058 201272 1.262217517718 37.162216775282 360 0.099998822215 0.100011956318 35.999998211558 3.5999996468174
122	597300 10106 1244 201458 1.297503604444 37.197502852904 360 5 5 1800 9000
121	607406 10112 1058 201272 1.262217517718 37.162216775282 360 5 5 1800 9000
120	617518 549 5173 200373 2 37 36 0 0 0 0
119	618067 766 5173 200373 2 37 36 0.023297 0.02625 0.942047 0.024659937709
118	618833 549 5173 200373 2 37 36 5 5 180 900
139	619382 12017 238 201565 1.11 37.21 362 -1.495422096627 1.4958357929884 44.2671786086 493.10242259104
138	631399 12087 238 201565 1.11 37.21 362 -1.4604220977198 1.4357065164868 42.740271546755 349.21403259854
137	643486 8038 238 201565 1.11 37.21 362 36.55 36.55 13231.1 483596.705
136	651524 11615 238 201565 1.11 37.21 362 49.282189941406 568.36940329766 110011.35693805 41290156.216515
135	663139 11624 238 201565 1.11 37.21 362 12.61356412899 18.147718411074 5206.2542820062 75487.416320356
133	674763 12853 238 201565 1.11 37.21 362 -0.1589840928705 0.011156329565987 -3.096384277138 0.3256556815569
132	687616 11608 238 201565 1.11 37.21 362 8.7401764378805 9.0279100159152 3256.3407755722 29292.692587203
134	699224 6590 238 201565 1.11 37.21 362 6 6 2172 13032
146	705814 14770 970 201184 1.247595127447 37.14759447626 360 0.099998824259 0.100011956614 35.999998302807 3.5999996650682
145	720584 14763 1064 201278 1.262217561081 37.162216817794 360 0.099998822164 0.100011956311 35.999998210707 3.5999996466472
144	735347 10122 970 201184 1.247595127447 37.14759447626 360 6 6 2160 12960
143	745469 10120 1064 201278 1.262217561081 37.162216817794 360 6 6 2160 12960
142	755589 549 5174 200374 2 37 36 0 0 0 0
141	756138 766 5174 200374 2 37 36 0.023297 0.02625 0.942047 0.024659937709
140	756904 549 5174 200374 2 37 36 6 6 216 1296
161	757453 12015 239 201566 1.11 37.21 362 -1.4854568388778 1.4867112421451 44.985476826071 481.76064113037
160	769468 12074 239 201566 1.11 37.21 362 -1.4553421867747 1.4301187282413 43.668878477365 347.82362321143
159	781542 8038 239 201566 1.11 37.21 362 36.55 36.55 13231.1 483596.705
158	789580 11618 239 201566 1.11 37.21 362 36.282188987732 555.50918359696 105305.70794165 38492117.07407
157	801198 11616 239 201566 1.11 37.21 362 12.619729328948 18.240882955068 5207.6849676238 75536.720742028
155	812814 12928 239 201566 1.11 37.21 362 -0.096242607416791 0.0095544881303997 -1.8580883331148 0.11481951734083
154	825742 11618 239 201566 1.11 37.21 362 8.8620829915762 9.014908797227 3257.6776101162 29316.336710208
156	837360 6590 239 201566 1.11 37.21 362 7 7 2534 17738
168	843950 14797 832 201603 1.212136997357 37.212135168862 361 0.099998820581 0.10001195652 36.099997125499 3.6099994296061
167	858747 14749 1070 201284 1.262217604444 37.162216860707 360 0.099998822134 0.10001195631 35.999998210257 3.5999996465572
166	873496 10144 832 201603 1.212136997357 37.212135168862 361 7 7 2527 17689
165	883640 10110 1070 201284 1.262217604444 37.162216860707 360 7 7 2520 17640
164	893750 549 5175 200375 2 37 36 0 0 0 0
163	894299 766 5175 200375 2 37 36 0.023297 0.02625 0.942047 0.024659937709
162	895065 549 5175 200375 2 37 36 7 7 252 1764
22	895614 11275 233 201703 1.11 37.23 363 0 9.4204441040201 3094.1103035851 27494.698611882
23	906889 12229 233 201703 1.11 37.23 363 -3.4487177965762 0.3920506809733 -91.288999550631 249.80775290201
24	919118 6246 233 201703 1.11 37.23 363 1 1 363 363
25	925364 11275 233 201703 1.11 37.23 363 12.591606548197 16.090748089405 5168.7715387524 73971.330248526
26	936639 11279 233 201703 1.11 37.23 363 114.28219184875 628.41983419016 134084.55787381 57407890.383382
27	947918 7698 233 201703 1.11 37.23 363 36.55 36.55 13267.65 484932.6075
28	955616 11784 233 201703 1.11 37.23 363 -1.4872877097888 1.4631892516601 20.664943398174 338.13022294193
29	967400 11735 233 201703 1.11 37.23 363 -1.5233934268137 1.5241492075817 20.113888140404 492.57992750031
30	979135 513 5169 200369 2 37 36 1 1 36 36
31	979648 730 5169 200369 2 37 36 0.023296 0.02625 0.942046 0.024659891116
32	980378 513 5169 200369 2 37 36 0 0 0 0
33	980891 9762 1034 201248 1.262217344264 37.162216618192 360 1 1 360 360
34	990653 9762 1034 201248 1.262217344264 37.162216618192 360 1 1 360 360
35	1000415 14414 1034 201248 1.262217344264 37.162216618192 360 0.099998822877 0.100011956321 35.999998227922 3.5999996500902
36	1014829 14414 1034 201248 1.262217344264 37.162216618192 360 0.099998822877 0.100011956321 35.999998227922 3.5999996500902
