file 1684472 1501599815                                         
version 2
run SinusoidalJammingDetail-296-20170801-17:03:04-89914
attr CACCSpacing 13
attr attackAcc -30
attr attackPos 7
attr attackSpeed 150
attr attackStart 32.5
attr attacker 1
attr beaconInterval 0.1
attr configname SinusoidalJammingDetail
attr controller 1
attr datetime 20170801-17:03:04
attr experiment SinusoidalJammingDetail
attr fakeAcc "(1 == 4)"
attr fakePos "(1 == 2)"
attr fakeSpeed "(1 == 3)"
attr inifile omnetpp_296.ini
attr iterationvars "$leaderSpeed=80, $controller=1, $CACCSpacing=13, $sController=\"CACC\", $attacker=1, $attackStart=32.5, $attackSpeed=150, $attackPos=7, $attackAcc=-30, $0=13, $1=0, $nCars=8, $platoonSize=8, $nLanes=1, $beaconInterval=0.1, $priority=2, $packetSize=200, $ploegH=0.5, $leaderHeadway=1.2, $fakeSpeed=(1 == 3), $fakeAcc=(1 == 4), $fakePos=(1 == 2)"
attr iterationvarsf leaderSpeed=80,controller=1,CACCSpacing=13,sController=CACC,attacker=1,attackStart=32.5,attackSpeed=150,attackPos=7,attackAcc=-30,13,0,nCars=8,platoonSize=8,nLanes=1,beaconInterval=0.1,priority=2,packetSize=200,ploegH=0.5,leaderHeadway=1.2,fakeSpeed=(1_==_3),fakeAcc=(1_==_4),fakePos=(1_==_2)-
attr leaderHeadway 1.2
attr leaderSpeed 80
attr measurement "$leaderSpeed=80, $controller=1, $CACCSpacing=13, $sController=\"CACC\", $attacker=1, $attackStart=32.5, $attackSpeed=150, $attackPos=7, $attackAcc=-30, $0=13, $1=0, $nCars=8, $platoonSize=8, $nLanes=1, $beaconInterval=0.1, $priority=2, $packetSize=200, $ploegH=0.5, $leaderHeadway=1.2, $fakeSpeed=(1 == 3), $fakeAcc=(1 == 4), $fakePos=(1 == 2)"
attr nCars 8
attr nLanes 1
attr network scenario
attr packetSize 200
attr platoonSize 8
attr ploegH 0.5
attr priority 2
attr processid 89914
attr repetition 1
attr replication #1
attr resultdir results
attr runnumber 296
attr sController "\"CACC\""
attr seedset 1
param **.coreDebug false
param **.debug false
param **.headway 0.1s
param **.numberOfCars 8
param **.numberOfCarsPerPlatoon 8
param **.numberOfLanes 1
param **.numericController 1
param **.traffic.nCars 8
param **.traffic.nLanes 1
param **.traffic.platoonInsertDistance 13m
param **.traffic.platoonInsertHeadway 0s
param **.traffic.platoonInsertSpeed 80kmph
param **.traffic.platoonInsertTime "1 s"
param **.traffic.platoonLeaderHeadway 1.2s
param **.traffic.platoonSize 8
param **.traffic.platooningVType "\"vtypeauto\""
param **.traffic_type "\"PlatoonsTrafficManager\""
param *.**.nic.mac1609_4.bitrate 6Mbps
param *.**.nic.mac1609_4.txPower 100mW
param *.**.nic.mac1609_4.useServiceChannel false
param *.**.nic.phy80211p.analogueModels "xmldoc(\"config.xml\")"
param *.**.nic.phy80211p.decider "xmldoc(\"config.xml\")"
param *.**.nic.phy80211p.maxTXPower 100mW
param *.**.nic.phy80211p.sensitivity -94dBm
param *.**.nic.phy80211p.thermalNoise -95dBm
param *.**.nic.phy80211p.usePropagationDelay true
param *.**.nic.phy80211p.useThermalNoise true
param *.annotations.draw false
param *.connectionManager.alpha 2.0
param *.connectionManager.carrierFrequency "5.890e9 Hz"
param *.connectionManager.pMax 100mW
param *.connectionManager.sat -94dBm
param *.connectionManager.sendDirect true
param *.manager.autoShutdown true
param *.manager.commandLine "\"sumo --remote-port $port --seed $seed --configuration-file $configFile\""
param *.manager.configFile "\"./sumocfg/freeway.sumo.cfg\""
param *.manager.host "\"localhost\""
param *.manager.margin 25
param *.manager.moduleDisplayString "\"\""
param *.manager.moduleName "\"node\""
param *.manager.moduleType "\"Car\""
param *.manager.updateInterval 0.01s
param *.node[*].appl.attackStart 32.5s
param *.node[*].appl.attackerType 1
param *.node[*].appl.simulationDuration "60 s"
param *.node[*].appl_type "\"SimplePlatooningApp\""
param *.node[*].helper.nCars 8
param *.node[*].helper.nLanes 1
param *.node[*].helper.platoonSize 8
param *.node[*].helper_type "\"PositionHelper\""
param *.node[*].mobility.x 0
param *.node[*].mobility.y 0
param *.node[*].mobility.z 1.895
param *.node[*].prot.attackStart 32.5s
param *.node[*].prot.attackerType 1
param *.node[*].prot.attackingNode 3
param *.node[*].prot.beaconingInterval 0.1s
param *.node[*].prot.fakeAcc "(1 == 4)"
param *.node[*].prot.fakePos "(1 == 2)"
param *.node[*].prot.fakeSpeed "(1 == 3)"
param *.node[*].prot.maliciousAcc "-30 mpss"
param *.node[*].prot.maliciousSpeed 150kmph
param *.node[*].prot.packetSize 200
param *.node[*].prot.priority 2
param *.node[*].prot.shiftX "7 m"
param *.node[*].prot.useControllerAcceleration true
param *.node[*].protocol_type "\"SimplePlatooningBeaconing\""
param *.node[*].scenario.accHeadway 0.1s
param *.node[*].scenario.caccC1 0.5
param *.node[*].scenario.caccOmegaN "0.2 Hz"
param *.node[*].scenario.caccSpacing 13m
param *.node[*].scenario.caccXi 1
param *.node[*].scenario.controller "\"CACC\""
param *.node[*].scenario.engineTau "0.5 s"
param *.node[*].scenario.leaderHeadway 1.2s
param *.node[*].scenario.leaderOscillationFrequency "0.2 Hz"
param *.node[*].scenario.leaderSpeed 80kmph
param *.node[*].scenario.oscillationAmplitude "10 kmph"
param *.node[*].scenario.ploegH 0.5s
param *.node[*].scenario.ploegKd 0.7
param *.node[*].scenario.ploegKp 0.2
param *.node[*].scenario.startOscillating "5 s"
param *.node[*].scenario.useRealisticEngine false
param *.node[*].scenario_type "\"SinusoidalScenario\""
param *.node[*].unicast.packetLossRate 0
param *.obstacles.debug false
param *.playgroundSizeX 65000m
param *.playgroundSizeY 25000m
param *.playgroundSizeZ 50m
param *.world.use2D false
param *.world.useTorus false

vector 0  scenario.node[0].appl  distance  ETV
vector 1  scenario.node[0].appl  relativeSpeed  ETV
vector 2  scenario.node[0].appl  nodeId  ETV
vector 6  scenario.node[0].appl  acceleration  ETV
vector 7  scenario.node[0].appl  controllerAcceleration  ETV
vector 3  scenario.node[0].appl  speed  ETV
vector 4  scenario.node[0].appl  posx  ETV
vector 5  scenario.node[0].appl  posy  ETV
vector 22  scenario.node[1].appl  distance  ETV
vector 23  scenario.node[1].appl  relativeSpeed  ETV
vector 24  scenario.node[1].appl  nodeId  ETV
vector 28  scenario.node[1].appl  acceleration  ETV
vector 29  scenario.node[1].appl  controllerAcceleration  ETV
vector 25  scenario.node[1].appl  speed  ETV
vector 26  scenario.node[1].appl  posx  ETV
vector 27  scenario.node[1].appl  posy  ETV
vector 44  scenario.node[2].appl  distance  ETV
vector 45  scenario.node[2].appl  relativeSpeed  ETV
vector 46  scenario.node[2].appl  nodeId  ETV
vector 50  scenario.node[2].appl  acceleration  ETV
vector 51  scenario.node[2].appl  controllerAcceleration  ETV
vector 47  scenario.node[2].appl  speed  ETV
vector 48  scenario.node[2].appl  posx  ETV
vector 49  scenario.node[2].appl  posy  ETV
vector 66  scenario.node[3].appl  distance  ETV
vector 67  scenario.node[3].appl  relativeSpeed  ETV
vector 68  scenario.node[3].appl  nodeId  ETV
vector 72  scenario.node[3].appl  acceleration  ETV
vector 73  scenario.node[3].appl  controllerAcceleration  ETV
vector 69  scenario.node[3].appl  speed  ETV
vector 70  scenario.node[3].appl  posx  ETV
vector 71  scenario.node[3].appl  posy  ETV
vector 88  scenario.node[4].appl  distance  ETV
vector 89  scenario.node[4].appl  relativeSpeed  ETV
vector 90  scenario.node[4].appl  nodeId  ETV
vector 94  scenario.node[4].appl  acceleration  ETV
vector 95  scenario.node[4].appl  controllerAcceleration  ETV
vector 91  scenario.node[4].appl  speed  ETV
vector 92  scenario.node[4].appl  posx  ETV
vector 93  scenario.node[4].appl  posy  ETV
vector 110  scenario.node[5].appl  distance  ETV
vector 111  scenario.node[5].appl  relativeSpeed  ETV
vector 112  scenario.node[5].appl  nodeId  ETV
vector 116  scenario.node[5].appl  acceleration  ETV
vector 117  scenario.node[5].appl  controllerAcceleration  ETV
vector 113  scenario.node[5].appl  speed  ETV
vector 114  scenario.node[5].appl  posx  ETV
vector 115  scenario.node[5].appl  posy  ETV
vector 132  scenario.node[6].appl  distance  ETV
vector 133  scenario.node[6].appl  relativeSpeed  ETV
vector 134  scenario.node[6].appl  nodeId  ETV
vector 138  scenario.node[6].appl  acceleration  ETV
vector 139  scenario.node[6].appl  controllerAcceleration  ETV
vector 135  scenario.node[6].appl  speed  ETV
vector 136  scenario.node[6].appl  posx  ETV
vector 137  scenario.node[6].appl  posy  ETV
vector 154  scenario.node[7].appl  distance  ETV
vector 155  scenario.node[7].appl  relativeSpeed  ETV
vector 156  scenario.node[7].appl  nodeId  ETV
vector 160  scenario.node[7].appl  acceleration  ETV
vector 161  scenario.node[7].appl  controllerAcceleration  ETV
vector 157  scenario.node[7].appl  speed  ETV
vector 158  scenario.node[7].appl  posx  ETV
vector 159  scenario.node[7].appl  posy  ETV
vector 58  scenario.node[2].prot  frontDelay  ETV
vector 56  scenario.node[2].prot  frontDelayId  ETV
vector 102  scenario.node[4].prot  frontDelay  ETV
vector 100  scenario.node[4].prot  frontDelayId  ETV
vector 146  scenario.node[6].prot  frontDelay  ETV
vector 144  scenario.node[6].prot  frontDelayId  ETV
vector 168  scenario.node[7].prot  frontDelay  ETV
vector 166  scenario.node[7].prot  frontDelayId  ETV
vector 124  scenario.node[5].prot  frontDelay  ETV
vector 122  scenario.node[5].prot  frontDelayId  ETV
vector 35  scenario.node[1].prot  leaderDelay  ETV
vector 33  scenario.node[1].prot  leaderDelayId  ETV
vector 36  scenario.node[1].prot  frontDelay  ETV
vector 34  scenario.node[1].prot  frontDelayId  ETV
vector 57  scenario.node[2].prot  leaderDelay  ETV
vector 55  scenario.node[2].prot  leaderDelayId  ETV
vector 79  scenario.node[3].prot  leaderDelay  ETV
vector 77  scenario.node[3].prot  leaderDelayId  ETV
vector 101  scenario.node[4].prot  leaderDelay  ETV
vector 99  scenario.node[4].prot  leaderDelayId  ETV
vector 123  scenario.node[5].prot  leaderDelay  ETV
vector 121  scenario.node[5].prot  leaderDelayId  ETV
vector 145  scenario.node[6].prot  leaderDelay  ETV
vector 143  scenario.node[6].prot  leaderDelayId  ETV
vector 167  scenario.node[7].prot  leaderDelay  ETV
vector 165  scenario.node[7].prot  leaderDelayId  ETV
vector 80  scenario.node[3].prot  frontDelay  ETV
vector 78  scenario.node[3].prot  frontDelayId  ETV
vector 8  scenario.node[0].prot  nodeId  ETV
vector 9  scenario.node[0].prot  busyTime  ETV
vector 10  scenario.node[0].prot  collisions  ETV
vector 30  scenario.node[1].prot  nodeId  ETV
vector 31  scenario.node[1].prot  busyTime  ETV
vector 32  scenario.node[1].prot  collisions  ETV
vector 52  scenario.node[2].prot  nodeId  ETV
vector 53  scenario.node[2].prot  busyTime  ETV
vector 54  scenario.node[2].prot  collisions  ETV
vector 74  scenario.node[3].prot  nodeId  ETV
vector 75  scenario.node[3].prot  busyTime  ETV
vector 76  scenario.node[3].prot  collisions  ETV
vector 96  scenario.node[4].prot  nodeId  ETV
vector 97  scenario.node[4].prot  busyTime  ETV
vector 98  scenario.node[4].prot  collisions  ETV
vector 118  scenario.node[5].prot  nodeId  ETV
vector 119  scenario.node[5].prot  busyTime  ETV
vector 120  scenario.node[5].prot  collisions  ETV
vector 140  scenario.node[6].prot  nodeId  ETV
vector 141  scenario.node[6].prot  busyTime  ETV
vector 142  scenario.node[6].prot  collisions  ETV
vector 162  scenario.node[7].prot  nodeId  ETV
vector 163  scenario.node[7].prot  busyTime  ETV
vector 164  scenario.node[7].prot  collisions  ETV
7	11247 13855 232 328174 1.11 59.91 589 -1.5 1.5 -14.445957496355 993.24092342393
6	25102 18568 232 328174 1.11 59.91 589 -1.4722746795719 1.4513434175793 -12.507252200722 675.29835178084
5	43670 12081 232 328174 1.11 59.91 589 36.55 36.55 21527.95 786846.5725
4	55751 17904 232 328174 1.11 59.91 589 153.82761459377 1464.8104119582 477508.6674706 471531431.27382
3	73655 17918 232 328174 1.11 59.91 589 20.932410304178 24.18693697487 13131.616571188 293209.28872176
1	91573 9725 232 328174 1.11 59.91 589 0 0 0 0
0	101298 10314 232 328174 1.11 59.91 589 -1 -1 -589 589
2	111612 9725 232 328174 1.11 59.91 589 0 0 0 0
10	121337 858 5168 328662 2 60 59 0 0 0 0
9	122195 1154 5168 328662 2 60 59 0.023297 0.02625 1.545797 0.040508375209
8	123349 799 5168 328662 2 60 59 0 0 0 0
29	124148 19451 233 328175 1.11 59.91 589 -1.5555551933586 1.5570065775649 -0.45356135231464 530.86493145798
28	143599 19492 233 328175 1.11 59.91 589 -1.4954736393971 1.4761401701815 -0.42967435682861 356.95243836519
27	163091 12670 233 328175 1.11 59.91 589 36.55 36.55 21527.95 786846.5725
26	175761 18499 233 328175 1.11 59.91 589 136.82761459351 1437.7022225412 466022.01316401 451746624.39295
25	194260 18493 233 328175 1.11 59.91 589 20.916072889595 24.195745535968 13030.952976033 288623.605572
23	212753 19497 233 328175 1.11 59.91 589 -1.275547363866 2.1868022720515 100.78866767694 299.45744665307
22	232250 18503 233 328175 1.11 59.91 589 10.802206712976 23.70276461181 9128.6410346879 150111.6789441
24	250753 10314 233 328175 1.11 59.91 589 1 1 589 589
36	261067 23702 1238 328624 1.29780270118 59.997804570199 588 0.099998895401 0.100012267759 58.800000776315 5.8800001624199
35	284769 23702 1238 328624 1.29780270118 59.997804570199 588 0.099998895401 0.100012267759 58.800000776315 5.8800001624199
34	308471 16117 1238 328624 1.29780270118 59.997804570199 588 1 1 588 588
33	324588 16117 1238 328624 1.29780270118 59.997804570199 588 1 1 588 588
32	340705 858 5169 328663 2 60 59 0 0 0 0
31	341563 1213 5169 328663 2 60 59 0.023297 0.02625 1.545797 0.040508375209
30	342776 858 5169 328663 2 60 59 1 1 59 59
51	343634 19385 234 328176 1.11 59.91 589 -1.5092135986184 1.5122039556151 -1.5349042572254 506.65517247774
50	363019 19440 234 328176 1.11 59.91 589 -1.4841297273922 1.4673660719648 -1.5689538761357 354.56838905628
49	382459 12670 234 328176 1.11 59.91 589 36.55 36.55 21527.95 786846.5725
48	395129 18506 234 328176 1.11 59.91 589 119.82761459351 1413.1650174545 454944.0338108 433442774.86511
47	413635 18503 234 328176 1.11 59.91 589 20.855211368397 24.184342166617 12955.541026979 285378.34800848
45	432138 19904 234 328176 1.11 59.91 589 -0.010773799953956 0.48477238864853 75.416245797227 27.110414857135
44	452042 18465 234 328176 1.11 59.91 589 12.992130839999 20.534924410396 8720.471114227 133276.40433116
46	470507 10314 234 328176 1.11 59.91 589 2 2 1178 2356
58	480821 23687 832 328212 1.212435964002 59.912437544698 588 0.099998895513 0.100012269255 58.800000487992 5.8800001047571
57	504508 23687 1244 328630 1.297802757886 59.997804652077 588 0.099998895438 0.100012267795 58.800000801487 5.8800001674543
56	528195 16107 832 328212 1.212435964002 59.912437544698 588 2 2 1176 2352
55	544302 16102 1244 328630 1.297802757886 59.997804652077 588 2 2 1176 2352
54	560404 858 5170 328664 2 60 59 0 0 0 0
53	561262 1213 5170 328664 2 60 59 0.023296 0.02625 1.545796 0.040508328616
52	562475 858 5170 328664 2 60 59 2 2 118 236
73	563333 19347 235 328177 1.11 59.91 589 -1.4954488827608 1.498650875993 -2.9496004058766 494.17777156661
72	582680 19404 235 328177 1.11 59.91 589 -1.4697266186513 1.4522561952241 -3.0440571057881 350.06472815505
71	602084 12670 235 328177 1.11 59.91 589 36.55 36.55 21527.95 786846.5725
70	614754 18508 235 328177 1.11 59.91 589 102.82761459351 1389.0756362341 444031.88361113 415944648.04776
69	633262 18506 235 328177 1.11 59.91 589 20.506806770127 24.169342136573 12884.595500838 282362.11733298
67	651768 19778 235 328177 1.11 59.91 589 -0.021936199719004 0.43265108092201 70.961215679311 23.1086267069
66	671546 18468 235 328177 1.11 59.91 589 12.980931663582 20.086421589612 8554.7312891505 127511.00331824
68	690014 10314 235 328177 1.11 59.91 589 3 3 1767 5301
80	700328 23687 1312 328701 1.307224814592 60.007226732475 588 0.099998895456 0.100012271063 58.800000825179 5.8800001721973
79	724015 23655 1250 328636 1.297802814592 59.99780473247 588 0.099998895456 0.100012267846 58.800000825174 5.8800001721917
78	747670 16111 1312 328701 1.307224814592 60.007226732475 588 3 3 1764 5292
77	763781 16094 1250 328636 1.297802814592 59.99780473247 588 3 3 1764 5292
76	779875 858 5171 328665 2 60 59 0 0 0 0
75	780733 1213 5171 328665 2 60 59 0.023297 0.02625 1.545797 0.040508375209
74	781946 858 5171 328665 2 60 59 3 3 177 531
95	782804 19354 236 328178 1.11 59.91 589 -1.5015734371532 1.5060862693594 -4.7409874432578 503.34547835486
94	802158 19401 236 328178 1.11 59.91 589 -1.4671620121238 1.4503898319514 -4.8951034706693 350.96398304596
93	821559 12670 236 328178 1.11 59.91 589 36.55 36.55 21527.95 786846.5725
92	834229 18491 236 328178 1.11 59.91 589 85.827614593506 1365.5406846867 433270.18170799 399203147.3332
91	852720 18491 236 328178 1.11 59.91 589 20.227878426836 24.165329830636 12819.181119406 279615.53515796
89	871211 19827 236 328178 1.11 59.91 589 -0.013223233467865 0.37549649676116 65.444822003533 19.588284828142
88	891038 18465 236 328178 1.11 59.91 589 12.999999998771 19.531239846384 8404.3936155048 122388.57408951
90	909503 10314 236 328178 1.11 59.91 589 4 4 2356 9424
102	919817 24290 902 328282 1.235040077414 59.935041703569 588 0.099998895544 0.100012269371 58.800000533451 5.8800001138488
101	944107 24289 1256 328642 1.297802871298 59.997804811023 588 0.099998895468 0.100012267912 58.800000847021 5.8800001765611
100	968396 16703 902 328282 1.235040077414 59.935041703569 588 4 4 2352 9408
99	985099 16118 1256 328642 1.297802871298 59.997804811023 588 4 4 2352 9408
98	1001217 858 5172 328666 2 60 59 0 0 0 0
97	1002075 1213 5172 328666 2 60 59 0.023297 0.02625 1.545797 0.040508375209
96	1003288 858 5172 328666 2 60 59 4 4 236 944
117	1004146 19933 237 328179 1.11 59.91 589 -1.5284774929344 1.5300606631086 -6.9279772489757 518.57286403128
116	1024079 19982 237 328179 1.11 59.91 589 -1.4661745230306 1.4484846907614 -7.0852383104146 351.54197343426
115	1044061 13259 237 328179 1.11 59.91 589 36.55 36.55 21527.95 786846.5725
114	1057320 19074 237 328179 1.11 59.91 589 68.827614593506 1342.6205043678 422644.58637819 383171503.06291
113	1076394 19085 237 328179 1.11 59.91 589 20.000256235846 24.162374636685 12759.902548167 277153.73875568
111	1095479 20365 237 328179 1.11 59.91 589 -0.020206181041594 0.34215460211662 59.32752227404 16.820025324131
110	1115844 19057 237 328179 1.11 59.91 589 12.976768489502 18.915785365157 8268.4097583778 117890.74022449
112	1134901 10903 237 328179 1.11 59.91 589 5 5 2945 14725
124	1145804 24263 1178 328558 1.297389474356 59.997391225687 588 0.099998895567 0.100012271658 58.800000658627 5.8800001388868
123	1170067 24286 1262 328648 1.297802928003 59.997804887535 588 0.09999889547 0.100012267989 58.800000866828 5.8800001805225
122	1194353 16690 1178 328558 1.297389474356 59.997391225687 588 5 5 2940 14700
121	1211043 16709 1262 328648 1.297802928003 59.997804887535 588 5 5 2940 14700
120	1227752 917 5173 328667 2 60 59 0 0 0 0
119	1228669 1272 5173 328667 2 60 59 0.023297 0.02625 1.545797 0.040508375209
118	1229941 917 5173 328667 2 60 59 5 5 295 1475
139	1230858 19936 238 328180 1.11 59.91 589 -1.4999727123304 1.5046152706318 -9.2524643973925 500.91527384004
138	1250794 19996 238 328180 1.11 59.91 589 -1.4605505221784 1.4432664529572 -9.5361245647485 349.24160085442
137	1270790 13259 238 328180 1.11 59.91 589 36.55 36.55 21527.95 786846.5725
136	1284049 19075 238 328180 1.11 59.91 589 51.827616500854 1320.3632892765 412132.63414403 367787744.38813
135	1303124 19092 238 328180 1.11 59.91 589 19.818011963326 24.154722218608 12707.244540464 274986.30550708
133	1322216 20352 238 328180 1.11 59.91 589 -0.02167489215935 0.3135894429236 52.72886008618 13.84239055895
132	1342568 19086 238 328180 1.11 59.91 589 12.996439488975 18.252306591622 8154.8990740053 114202.60551536
134	1361654 10903 238 328180 1.11 59.91 589 6 6 3534 21204
146	1372557 24266 970 328350 1.248713190826 59.948714854304 588 0.099998895551 0.100012271255 58.800000570774 5.880000121316
145	1396823 24278 1268 328654 1.297802984709 59.997804961842 588 0.099998895473 0.100012268075 58.800000884429 5.8800001840427
144	1421101 16689 970 328350 1.248713190826 59.948714854304 588 6 6 3528 21168
143	1437790 16709 1268 328654 1.297802984709 59.997804961842 588 6 6 3528 21168
142	1454499 917 5174 328668 2 60 59 0 0 0 0
141	1455416 1272 5174 328668 2 60 59 0.023297 0.02625 1.545797 0.040508375209
140	1456688 917 5174 328668 2 60 59 6 6 354 2124
161	1457605 19930 239 328181 1.11 59.91 589 -1.5093935082647 1.5126459301923 -11.850810184998 509.52321931563
160	1477535 19985 239 328181 1.11 59.91 589 -1.4619692668234 1.4451435680922 -12.135037882044 351.03178831252
159	1497520 13259 239 328181 1.11 59.91 589 36.55 36.55 21527.95 786846.5725
158	1510779 19086 239 328181 1.11 59.91 589 34.827616024017 1298.7874727202 401719.13278755 353006208.17019
157	1529865 19069 239 328181 1.11 59.91 589 19.669591363026 24.156425018981 12661.395399218 273119.98408648
155	1548934 20429 239 328181 1.11 59.91 589 -0.021906766602076 0.28967144980097 45.944502490765 11.091934543358
154	1569363 19073 239 328181 1.11 59.91 589 12.991551717775 17.570611616046 8056.584373662 111095.08808544
156	1588436 10903 239 328181 1.11 59.91 589 7 7 4123 28861
168	1599339 24299 1040 328420 1.263894247532 59.963895926317 588 0.099998895555 0.100012271342 58.800000586081 5.8800001243777
167	1623638 24301 1274 328660 1.297803041415 59.997805033881 588 0.099998895477 0.100012268164 58.800000899762 5.8800001871093
166	1647939 16708 1040 328420 1.263894247532 59.963895926317 588 7 7 4116 28812
165	1664647 16719 1274 328660 1.297803041415 59.997805033881 588 7 7 4116 28812
164	1681366 917 5175 328669 2 60 59 0 0 0 0
163	1682283 1272 5175 328669 2 60 59 0.023297 0.02625 1.545797 0.040508375209
162	1683555 917 5175 328669 2 60 59 7 7 413 2891
