file 1685029 1501767709                                         
version 2
run SinusoidalJammingDetail-203-20170803-15:41:18-27452
attr CACCSpacing 5
attr attackAcc -30
attr attackPos 7
attr attackSpeed 150
attr attackStart 32
attr attacker 1
attr beaconInterval 0.1
attr configname SinusoidalJammingDetail
attr controller 2
attr datetime 20170803-15:41:18
attr experiment SinusoidalJammingDetail
attr fakeAcc "(1 == 4)"
attr fakePos "(1 == 2)"
attr fakeSpeed "(1 == 3)"
attr inifile omnetpp_203.ini
attr iterationvars "$leaderSpeed=50, $controller=2, $CACCSpacing=5, $sController=\"PLOEG\", $attacker=1, $attackStart=32, $attackSpeed=150, $attackPos=7, $attackAcc=-30, $0=5, $1=0.5, $nCars=8, $platoonSize=8, $nLanes=1, $beaconInterval=0.1, $priority=2, $packetSize=200, $ploegH=0.5, $leaderHeadway=1.2, $fakeSpeed=(1 == 3), $fakeAcc=(1 == 4), $fakePos=(1 == 2)"
attr iterationvarsf leaderSpeed=50,controller=2,CACCSpacing=5,sController=PLOEG,attacker=1,attackStart=32,attackSpeed=150,attackPos=7,attackAcc=-30,5,0.5,nCars=8,platoonSize=8,nLanes=1,beaconInterval=0.1,priority=2,packetSize=200,ploegH=0.5,leaderHeadway=1.2,fakeSpeed=(1_==_3),fakeAcc=(1_==_4),fakePos=(1_==_2)-
attr leaderHeadway 1.2
attr leaderSpeed 50
attr measurement "$leaderSpeed=50, $controller=2, $CACCSpacing=5, $sController=\"PLOEG\", $attacker=1, $attackStart=32, $attackSpeed=150, $attackPos=7, $attackAcc=-30, $0=5, $1=0.5, $nCars=8, $platoonSize=8, $nLanes=1, $beaconInterval=0.1, $priority=2, $packetSize=200, $ploegH=0.5, $leaderHeadway=1.2, $fakeSpeed=(1 == 3), $fakeAcc=(1 == 4), $fakePos=(1 == 2)"
attr nCars 8
attr nLanes 1
attr network scenario
attr packetSize 200
attr platoonSize 8
attr ploegH 0.5
attr priority 2
attr processid 27452
attr repetition 3
attr replication #3
attr resultdir results
attr runnumber 203
attr sController "\"PLOEG\""
attr seedset 3
param **.coreDebug false
param **.debug false
param **.headway 0.1s
param **.numberOfCars 8
param **.numberOfCarsPerPlatoon 8
param **.numberOfLanes 1
param **.numericController 2
param **.traffic.nCars 8
param **.traffic.nLanes 1
param **.traffic.platoonInsertDistance 5m
param **.traffic.platoonInsertHeadway 0.5s
param **.traffic.platoonInsertSpeed 50kmph
param **.traffic.platoonInsertTime "1 s"
param **.traffic.platoonLeaderHeadway 1.2s
param **.traffic.platoonSize 8
param **.traffic.platooningVType "\"vtypeauto\""
param **.traffic_type "\"PlatoonsTrafficManager\""
param *.**.nic.mac1609_4.bitrate 6Mbps
param *.**.nic.mac1609_4.txPower 100mW
param *.**.nic.mac1609_4.useServiceChannel false
param *.**.nic.phy80211p.analogueModels "xmldoc(\"config.xml\")"
param *.**.nic.phy80211p.decider "xmldoc(\"config.xml\")"
param *.**.nic.phy80211p.maxTXPower 100mW
param *.**.nic.phy80211p.sensitivity -94dBm
param *.**.nic.phy80211p.thermalNoise -95dBm
param *.**.nic.phy80211p.usePropagationDelay true
param *.**.nic.phy80211p.useThermalNoise true
param *.annotations.draw false
param *.connectionManager.alpha 2.0
param *.connectionManager.carrierFrequency "5.890e9 Hz"
param *.connectionManager.pMax 100mW
param *.connectionManager.sat -94dBm
param *.connectionManager.sendDirect true
param *.manager.autoShutdown true
param *.manager.commandLine "\"sumo --remote-port $port --seed $seed --configuration-file $configFile\""
param *.manager.configFile "\"./sumocfg/freeway.sumo.cfg\""
param *.manager.host "\"localhost\""
param *.manager.margin 25
param *.manager.moduleDisplayString "\"\""
param *.manager.moduleName "\"node\""
param *.manager.moduleType "\"Car\""
param *.manager.updateInterval 0.01s
param *.node[*].appl.attackStart 32s
param *.node[*].appl.attackerType 1
param *.node[*].appl.simulationDuration "60 s"
param *.node[*].appl_type "\"SimplePlatooningApp\""
param *.node[*].helper.nCars 8
param *.node[*].helper.nLanes 1
param *.node[*].helper.platoonSize 8
param *.node[*].helper_type "\"PositionHelper\""
param *.node[*].mobility.x 0
param *.node[*].mobility.y 0
param *.node[*].mobility.z 1.895
param *.node[*].prot.attackStart 32s
param *.node[*].prot.attackerType 1
param *.node[*].prot.attackingNode 3
param *.node[*].prot.beaconingInterval 0.1s
param *.node[*].prot.fakeAcc "(1 == 4)"
param *.node[*].prot.fakePos "(1 == 2)"
param *.node[*].prot.fakeSpeed "(1 == 3)"
param *.node[*].prot.maliciousAcc "-30 mpss"
param *.node[*].prot.maliciousSpeed 150kmph
param *.node[*].prot.packetSize 200
param *.node[*].prot.priority 2
param *.node[*].prot.shiftX "7 m"
param *.node[*].prot.useControllerAcceleration true
param *.node[*].protocol_type "\"SimplePlatooningBeaconing\""
param *.node[*].scenario.accHeadway 0.1s
param *.node[*].scenario.caccC1 0.5
param *.node[*].scenario.caccOmegaN "0.2 Hz"
param *.node[*].scenario.caccSpacing 5m
param *.node[*].scenario.caccXi 1
param *.node[*].scenario.controller "\"PLOEG\""
param *.node[*].scenario.engineTau "0.5 s"
param *.node[*].scenario.leaderHeadway 1.2s
param *.node[*].scenario.leaderOscillationFrequency "0.2 Hz"
param *.node[*].scenario.leaderSpeed 50kmph
param *.node[*].scenario.oscillationAmplitude "10 kmph"
param *.node[*].scenario.ploegH 0.5s
param *.node[*].scenario.ploegKd 0.7
param *.node[*].scenario.ploegKp 0.2
param *.node[*].scenario.startOscillating "5 s"
param *.node[*].scenario.useRealisticEngine false
param *.node[*].scenario_type "\"SinusoidalScenario\""
param *.node[*].unicast.packetLossRate 0
param *.obstacles.debug false
param *.playgroundSizeX 65000m
param *.playgroundSizeY 25000m
param *.playgroundSizeZ 50m
param *.world.use2D false
param *.world.useTorus false

vector 0  scenario.node[0].appl  distance  ETV
vector 1  scenario.node[0].appl  relativeSpeed  ETV
vector 2  scenario.node[0].appl  nodeId  ETV
vector 6  scenario.node[0].appl  acceleration  ETV
vector 7  scenario.node[0].appl  controllerAcceleration  ETV
vector 3  scenario.node[0].appl  speed  ETV
vector 4  scenario.node[0].appl  posx  ETV
vector 5  scenario.node[0].appl  posy  ETV
vector 22  scenario.node[1].appl  distance  ETV
vector 23  scenario.node[1].appl  relativeSpeed  ETV
vector 24  scenario.node[1].appl  nodeId  ETV
vector 28  scenario.node[1].appl  acceleration  ETV
vector 29  scenario.node[1].appl  controllerAcceleration  ETV
vector 25  scenario.node[1].appl  speed  ETV
vector 26  scenario.node[1].appl  posx  ETV
vector 27  scenario.node[1].appl  posy  ETV
vector 44  scenario.node[2].appl  distance  ETV
vector 45  scenario.node[2].appl  relativeSpeed  ETV
vector 46  scenario.node[2].appl  nodeId  ETV
vector 50  scenario.node[2].appl  acceleration  ETV
vector 51  scenario.node[2].appl  controllerAcceleration  ETV
vector 47  scenario.node[2].appl  speed  ETV
vector 48  scenario.node[2].appl  posx  ETV
vector 49  scenario.node[2].appl  posy  ETV
vector 66  scenario.node[3].appl  distance  ETV
vector 67  scenario.node[3].appl  relativeSpeed  ETV
vector 68  scenario.node[3].appl  nodeId  ETV
vector 72  scenario.node[3].appl  acceleration  ETV
vector 73  scenario.node[3].appl  controllerAcceleration  ETV
vector 69  scenario.node[3].appl  speed  ETV
vector 70  scenario.node[3].appl  posx  ETV
vector 71  scenario.node[3].appl  posy  ETV
vector 88  scenario.node[4].appl  distance  ETV
vector 89  scenario.node[4].appl  relativeSpeed  ETV
vector 90  scenario.node[4].appl  nodeId  ETV
vector 94  scenario.node[4].appl  acceleration  ETV
vector 95  scenario.node[4].appl  controllerAcceleration  ETV
vector 91  scenario.node[4].appl  speed  ETV
vector 92  scenario.node[4].appl  posx  ETV
vector 93  scenario.node[4].appl  posy  ETV
vector 110  scenario.node[5].appl  distance  ETV
vector 111  scenario.node[5].appl  relativeSpeed  ETV
vector 112  scenario.node[5].appl  nodeId  ETV
vector 116  scenario.node[5].appl  acceleration  ETV
vector 117  scenario.node[5].appl  controllerAcceleration  ETV
vector 113  scenario.node[5].appl  speed  ETV
vector 114  scenario.node[5].appl  posx  ETV
vector 115  scenario.node[5].appl  posy  ETV
vector 132  scenario.node[6].appl  distance  ETV
vector 133  scenario.node[6].appl  relativeSpeed  ETV
vector 134  scenario.node[6].appl  nodeId  ETV
vector 138  scenario.node[6].appl  acceleration  ETV
vector 139  scenario.node[6].appl  controllerAcceleration  ETV
vector 135  scenario.node[6].appl  speed  ETV
vector 136  scenario.node[6].appl  posx  ETV
vector 137  scenario.node[6].appl  posy  ETV
vector 154  scenario.node[7].appl  distance  ETV
vector 155  scenario.node[7].appl  relativeSpeed  ETV
vector 156  scenario.node[7].appl  nodeId  ETV
vector 160  scenario.node[7].appl  acceleration  ETV
vector 161  scenario.node[7].appl  controllerAcceleration  ETV
vector 157  scenario.node[7].appl  speed  ETV
vector 158  scenario.node[7].appl  posx  ETV
vector 159  scenario.node[7].appl  posy  ETV
vector 35  scenario.node[1].prot  leaderDelay  ETV
vector 33  scenario.node[1].prot  leaderDelayId  ETV
vector 36  scenario.node[1].prot  frontDelay  ETV
vector 34  scenario.node[1].prot  frontDelayId  ETV
vector 57  scenario.node[2].prot  leaderDelay  ETV
vector 55  scenario.node[2].prot  leaderDelayId  ETV
vector 79  scenario.node[3].prot  leaderDelay  ETV
vector 77  scenario.node[3].prot  leaderDelayId  ETV
vector 101  scenario.node[4].prot  leaderDelay  ETV
vector 99  scenario.node[4].prot  leaderDelayId  ETV
vector 123  scenario.node[5].prot  leaderDelay  ETV
vector 121  scenario.node[5].prot  leaderDelayId  ETV
vector 145  scenario.node[6].prot  leaderDelay  ETV
vector 143  scenario.node[6].prot  leaderDelayId  ETV
vector 167  scenario.node[7].prot  leaderDelay  ETV
vector 165  scenario.node[7].prot  leaderDelayId  ETV
vector 168  scenario.node[7].prot  frontDelay  ETV
vector 166  scenario.node[7].prot  frontDelayId  ETV
vector 58  scenario.node[2].prot  frontDelay  ETV
vector 56  scenario.node[2].prot  frontDelayId  ETV
vector 124  scenario.node[5].prot  frontDelay  ETV
vector 122  scenario.node[5].prot  frontDelayId  ETV
vector 80  scenario.node[3].prot  frontDelay  ETV
vector 78  scenario.node[3].prot  frontDelayId  ETV
vector 146  scenario.node[6].prot  frontDelay  ETV
vector 144  scenario.node[6].prot  frontDelayId  ETV
vector 102  scenario.node[4].prot  frontDelay  ETV
vector 100  scenario.node[4].prot  frontDelayId  ETV
vector 8  scenario.node[0].prot  nodeId  ETV
vector 9  scenario.node[0].prot  busyTime  ETV
vector 10  scenario.node[0].prot  collisions  ETV
vector 30  scenario.node[1].prot  nodeId  ETV
vector 31  scenario.node[1].prot  busyTime  ETV
vector 32  scenario.node[1].prot  collisions  ETV
vector 52  scenario.node[2].prot  nodeId  ETV
vector 53  scenario.node[2].prot  busyTime  ETV
vector 54  scenario.node[2].prot  collisions  ETV
vector 74  scenario.node[3].prot  nodeId  ETV
vector 75  scenario.node[3].prot  busyTime  ETV
vector 76  scenario.node[3].prot  collisions  ETV
vector 96  scenario.node[4].prot  nodeId  ETV
vector 97  scenario.node[4].prot  busyTime  ETV
vector 98  scenario.node[4].prot  collisions  ETV
vector 118  scenario.node[5].prot  nodeId  ETV
vector 119  scenario.node[5].prot  busyTime  ETV
vector 120  scenario.node[5].prot  collisions  ETV
vector 140  scenario.node[6].prot  nodeId  ETV
vector 141  scenario.node[6].prot  busyTime  ETV
vector 142  scenario.node[6].prot  collisions  ETV
vector 162  scenario.node[7].prot  nodeId  ETV
vector 163  scenario.node[7].prot  busyTime  ETV
vector 164  scenario.node[7].prot  collisions  ETV
7	11239 13860 232 328174 1.11 59.91 589 -1.5 1.5 -14.445969899918 993.24092361736
6	25099 18587 232 328174 1.11 59.91 589 -1.472274679513 1.4513434175798 -12.507264912644 675.29835211523
5	43686 12081 232 328174 1.11 59.91 589 36.55 36.55 21527.95 786846.5725
4	55767 17893 232 328174 1.11 59.91 589 152.34595832811 973.32875682606 332330.97259278 220559149.18142
3	73660 17901 232 328174 1.11 59.91 589 12.599076970844 15.853603639796 8223.2832500118 115251.79065057
1	91561 9725 232 328174 1.11 59.91 589 0 0 0 0
0	101286 10314 232 328174 1.11 59.91 589 -1 -1 -589 589
2	111600 9725 232 328174 1.11 59.91 589 0 0 0 0
10	121325 858 5056 328550 2 60 59 0 0 0 0
9	122183 1562 5056 328550 2 60 59 0.022761874226 0.026259227186 1.545257689028 0.040483510340633
8	123745 799 5056 328550 2 60 59 0 0 0 0
29	124544 19168 233 328175 1.11 59.91 589 -1.5826817497646 1.5236452411936 4.5209184236317 530.19226848037
28	143712 19235 233 328175 1.11 59.91 589 -1.5019380698011 1.3873082430322 6.233167513772 383.28514021825
27	162947 12670 233 328175 1.11 59.91 589 36.55 36.55 21527.95 786846.5725
26	175617 18489 233 328175 1.11 59.91 589 136.40151557922 966.14132794872 326029.22018327 214310573.75738
25	194106 18493 233 328175 1.11 59.91 589 12.778464536857 16.160011286348 8311.5076667989 117642.31973827
23	212599 19308 233 328175 1.11 59.91 589 -3.2390746139029 1.8972703224663 -88.099344137958 628.77278095922
22	231907 18500 233 328175 1.11 59.91 589 1.558418357032 11.944442748949 3947.5168978433 32496.865275263
24	250407 10314 233 328175 1.11 59.91 589 1 1 589 589
36	260721 23696 836 328222 1.269558435995 59.969558504729 588 0.099999076548 0.100012382578 58.799999451544 5.8799998964602
35	284417 23696 836 328222 1.269558435995 59.969558504729 588 0.099999076548 0.100012382578 58.799999451544 5.8799998964602
34	308113 16115 836 328222 1.269558435995 59.969558504729 588 1 1 588 588
33	324228 16115 836 328222 1.269558435995 59.969558504729 588 1 1 588 588
32	340343 858 5057 328551 2 60 59 0 0 0 0
31	341201 1615 5057 328551 2 60 59 0.022761927322 0.026259232933 1.545257712503 0.040483511202593
30	342816 858 5057 328551 2 60 59 1 1 59 59
51	343674 19229 234 328176 1.11 59.91 589 -1.5972532934184 1.4456745999 6.6874654575477 421.92973643098
50	362903 19294 234 328176 1.11 59.91 589 -1.4656503953049 1.3279108008257 5.9034013476653 309.50992900242
49	382197 12670 234 328176 1.11 59.91 589 36.55 36.55 21527.95 786846.5725
48	394867 18496 234 328176 1.11 59.91 589 120.45706520081 952.87820319802 318217.03638355 205879745.10083
47	413363 18496 234 328176 1.11 59.91 589 12.922824298439 16.08397973295 8338.3056288497 118388.89687623
45	431859 19499 234 328176 1.11 59.91 589 -0.76825508315192 0.67589798240038 -26.860293726018 91.688225747884
44	451358 18492 234 328176 1.11 59.91 589 8.4281495045207 11.944788122436 5456.7197589558 50916.286889884
46	469850 10314 234 328176 1.11 59.91 589 2 2 1178 2356
58	480164 23694 1046 328432 1.2991901274 59.999190068485 588 0.09999907604 0.100012381579 58.799999323895 5.8799998709287
57	503858 23697 842 328228 1.26955848918 59.969558548975 588 0.099999076581 0.100012382569 58.799999442605 5.8799998946724
56	527555 16115 1046 328432 1.2991901274 59.999190068485 588 2 2 1176 2352
55	543670 16111 842 328228 1.26955848918 59.969558548975 588 2 2 1176 2352
54	559781 858 5058 328552 2 60 59 0 0 0 0
53	560639 1620 5058 328552 2 60 59 0.022761980497 0.026259232912 1.545257756751 0.040483513154674
52	562259 858 5058 328552 2 60 59 2 2 118 236
73	563117 19230 235 328177 1.11 59.91 589 -1.5593741579641 1.3934549511923 6.0936280517941 352.63544259623
72	582347 19284 235 328177 1.11 59.91 589 -1.4109973333873 1.2817059085526 3.5811475630668 260.83323875667
71	601631 12670 235 328177 1.11 59.91 589 36.55 36.55 21527.95 786846.5725
70	614301 18488 235 328177 1.11 59.91 589 104.51262245178 939.71740481043 310390.75464408 197652906.93406
69	632789 18494 235 328177 1.11 59.91 589 13.029519727008 16.034835442496 8366.0582297815 119200.18654854
67	651283 19516 235 328177 1.11 59.91 589 -0.73136920452266 0.65734654091689 -27.811634945183 78.210348685176
66	670799 18504 235 328177 1.11 59.91 589 8.4793155349574 11.945806349085 5470.8367914902 51204.169010623
68	689303 10314 235 328177 1.11 59.91 589 3 3 1767 5301
80	699617 23683 1180 328569 1.300211393325 60.00021128721 588 0.099999075735 0.100012379888 58.799999276695 5.8799998614878
79	723300 23683 848 328234 1.269558542365 59.969558592914 588 0.09999907654 0.100012382569 58.799999433359 5.8799998928232
78	746983 16106 1180 328569 1.300211393325 60.00021128721 588 3 3 1764 5292
77	763089 16114 848 328234 1.269558542365 59.969558592914 588 3 3 1764 5292
76	779203 858 5059 328553 2 60 59 0 0 0 0
75	780061 1618 5059 328553 2 60 59 0.022760927308 0.02625923358 1.54525671279 0.040483465694906
74	781679 858 5059 328553 2 60 59 3 3 177 531
95	782537 19265 236 328178 1.11 59.91 589 -1.4800503013936 1.333817656587 3.4395434628998 295.87620059647
94	801802 19345 236 328178 1.11 59.91 589 -1.3352582367453 1.2233057339014 0.49365805295931 221.23654299237
93	821147 12670 236 328178 1.11 59.91 589 36.55 36.55 21527.95 786846.5725
92	833817 18493 236 328178 1.11 59.91 589 88.568179702759 926.72461246615 302549.99316885 189629758.54411
91	852310 18493 236 328178 1.11 59.91 589 13.128442121728 16.33025398068 8395.4660578528 120082.61325408
89	870803 19539 236 328178 1.11 59.91 589 -0.67548333410447 0.62050354898055 -29.443639547012 62.836078873897
88	890342 18498 236 328178 1.11 59.91 589 8.5390271790095 11.944578119314 5485.3496317899 51495.914104468
90	908840 10314 236 328178 1.11 59.91 589 4 4 2356 9424
102	919154 24260 1312 328701 1.30602965925 60.006068503368 588 0.099908079777 0.100090371097 58.799973226928 5.8799957750712
101	943414 24280 854 328240 1.26955859555 59.969558636305 588 0.099999076451 0.10001238257 58.799999423565 5.8799998908644
100	967694 16699 1312 328701 1.30602965925 60.006068503368 588 4 4 2352 9408
99	984393 16114 854 328240 1.26955859555 59.969558636305 588 4 4 2352 9408
98	1000507 858 5060 328554 2 60 59 0 0 0 0
97	1001365 1618 5060 328554 2 60 59 0.022761874122 0.026259234528 1.545257669369 0.040483509309191
96	1002983 858 5060 328554 2 60 59 4 4 236 944
117	1003841 19933 237 328179 1.11 59.91 589 -1.3879126515502 1.2708821997294 0.17344281647229 252.08386606935
116	1023774 19994 237 328179 1.11 59.91 589 -1.2568321089752 1.1641555359386 -2.0881449930661 192.23853896223
115	1043768 13259 237 328179 1.11 59.91 589 36.55 36.55 21527.95 786846.5725
114	1057027 19082 237 328179 1.11 59.91 589 72.623736953735 913.8744698585 294694.26433033 181809920.9968
113	1076109 19104 237 328179 1.11 59.91 589 13.216505504484 16.839522346911 8426.3197734492 121028.35316198
111	1095213 20166 237 328179 1.11 59.91 589 -0.62546758838345 0.58921674392027 -30.858652176944 51.993010132151
110	1115379 19092 237 328179 1.11 59.91 589 8.5861236873549 11.944442749023 5500.3459128333 51798.24185912
112	1134471 10903 237 328179 1.11 59.91 589 5 5 2945 14725
124	1145374 24298 1112 328492 1.299603286955 59.9996031988 588 0.099999075822 0.10001238281 58.800012294655 5.8800024652305
123	1169672 24275 860 328246 1.269558648735 59.969558679211 588 0.099999076357 0.100012382569 58.799999413286 5.8799998888086
122	1193947 16706 1112 328492 1.299603286955 59.9996031988 588 5 5 2940 14700
121	1210653 16707 860 328246 1.269558648735 59.969558679211 588 5 5 2940 14700
120	1227360 917 5061 328555 2 60 59 0 0 0 0
119	1228277 1676 5061 328555 2 60 59 0.022760820941 0.026259235353 1.545256626436 0.040483461903579
118	1229953 917 5061 328555 2 60 59 5 5 295 1475
139	1230870 19972 238 328180 1.11 59.91 589 -1.2986299739305 1.3037508572234 -2.4536546270773 220.47749976323
138	1250842 19993 238 328180 1.11 59.91 589 -1.1822497108856 1.2204066609286 -3.3702834046858 172.20266800029
137	1270835 13259 238 328180 1.11 59.91 589 36.55 36.55 21527.95 786846.5725
136	1284094 19075 238 328180 1.11 59.91 589 56.679290390015 901.10206247433 286822.42933214 174193364.24804
135	1303169 19081 238 328180 1.11 59.91 589 13.29504176979 17.303249416227 8457.9973064813 122016.61517791
133	1322250 20167 238 328180 1.11 59.91 589 -0.58119895184543 0.55922708658903 -31.656651582122 43.685924086084
132	1342417 19087 238 328180 1.11 59.91 589 8.627871885092 11.945663863828 5516.468548854 52125.217403081
134	1361504 10903 238 328180 1.11 59.91 589 6 6 3534 21204
146	1372407 24298 1249 328638 1.30561655288 60.005616416208 588 0.099999075485 0.100012374481 58.799999246138 5.8799998553744
145	1396705 24290 866 328252 1.26955870192 59.969558721837 588 0.099999076292 0.100012382569 58.799999402727 5.8799998866968
144	1420995 16715 1249 328638 1.30561655288 60.005616416208 588 6 6 3528 21168
143	1437710 16709 866 328252 1.26955870192 59.969558721837 588 6 6 3528 21168
142	1454419 917 5062 328556 2 60 59 0 0 0 0
141	1455336 1677 5062 328556 2 60 59 0.022761767754 0.026259235793 1.545257583797 0.040483505558738
140	1457013 917 5062 328556 2 60 59 6 6 354 2124
161	1457930 19983 239 328181 1.11 59.91 589 -1.2117974197793 1.3422891470985 -3.6286553213302 197.36614884267
160	1477913 20011 239 328181 1.11 59.91 589 -1.1117342426219 1.2704695323619 -3.1914355644691 158.23111612721
159	1497924 13259 239 328181 1.11 59.91 589 36.55 36.55 21527.95 786846.5725
158	1511183 19080 239 328181 1.11 59.91 589 40.734846687317 888.33000826985 278934.96899014 166781131.78285
157	1530263 19100 239 328181 1.11 59.91 589 13.364783941886 17.718075622258 8489.7295079902 123022.20142351
155	1549363 20211 239 328181 1.11 59.91 589 -0.5558963906561 0.53003987281524 -31.698498674877 37.111357168826
154	1569574 19079 239 328181 1.11 59.91 589 8.6652000239581 11.944443702698 5532.0949860319 52441.367389783
156	1588653 10903 239 328181 1.11 59.91 589 7 7 4123 28861
168	1599556 24280 980 328360 1.292107861475 59.992107849634 588 0.099999076232 0.100012377563 58.799999370969 5.8799998803415
167	1623836 24289 872 328258 1.269558755105 59.969558764436 588 0.099999076269 0.100012382568 58.799999392141 5.8799998845796
166	1648125 16690 980 328360 1.292107861475 59.992107849634 588 7 7 4116 28812
165	1664815 16705 872 328258 1.269558755105 59.969558764436 588 7 7 4116 28812
164	1681520 917 5063 328557 2 60 59 0 0 0 0
163	1682437 1675 5063 328557 2 60 59 0.022761714571 0.026259235779 1.545257541198 0.040483503693332
162	1684112 917 5063 328557 2 60 59 7 7 413 2891
