file 1681899 1501770321                                         
version 2
run SinusoidalJammingDetail-1142-20170803-16:24:51-50412
attr CACCSpacing 5
attr attackAcc -30
attr attackPos 7
attr attackSpeed 150
attr attackStart 30
attr attacker 1
attr beaconInterval 0.1
attr configname SinusoidalJammingDetail
attr controller 2
attr datetime 20170803-16:24:51
attr experiment SinusoidalJammingDetail
attr fakeAcc "(1 == 4)"
attr fakePos "(1 == 2)"
attr fakeSpeed "(1 == 3)"
attr inifile omnetpp_1142.ini
attr iterationvars "$leaderSpeed=150, $controller=2, $CACCSpacing=5, $sController=\"PLOEG\", $attacker=1, $attackStart=30, $attackSpeed=150, $attackPos=7, $attackAcc=-30, $0=5, $1=0.5, $nCars=8, $platoonSize=8, $nLanes=1, $beaconInterval=0.1, $priority=2, $packetSize=200, $ploegH=0.5, $leaderHeadway=1.2, $fakeSpeed=(1 == 3), $fakeAcc=(1 == 4), $fakePos=(1 == 2)"
attr iterationvarsf leaderSpeed=150,controller=2,CACCSpacing=5,sController=PLOEG,attacker=1,attackStart=30,attackSpeed=150,attackPos=7,attackAcc=-30,5,0.5,nCars=8,platoonSize=8,nLanes=1,beaconInterval=0.1,priority=2,packetSize=200,ploegH=0.5,leaderHeadway=1.2,fakeSpeed=(1_==_3),fakeAcc=(1_==_4),fakePos=(1_==_2)-
attr leaderHeadway 1.2
attr leaderSpeed 150
attr measurement "$leaderSpeed=150, $controller=2, $CACCSpacing=5, $sController=\"PLOEG\", $attacker=1, $attackStart=30, $attackSpeed=150, $attackPos=7, $attackAcc=-30, $0=5, $1=0.5, $nCars=8, $platoonSize=8, $nLanes=1, $beaconInterval=0.1, $priority=2, $packetSize=200, $ploegH=0.5, $leaderHeadway=1.2, $fakeSpeed=(1 == 3), $fakeAcc=(1 == 4), $fakePos=(1 == 2)"
attr nCars 8
attr nLanes 1
attr network scenario
attr packetSize 200
attr platoonSize 8
attr ploegH 0.5
attr priority 2
attr processid 50412
attr repetition 2
attr replication #2
attr resultdir results
attr runnumber 1142
attr sController "\"PLOEG\""
attr seedset 2
param **.coreDebug false
param **.debug false
param **.headway 0.1s
param **.numberOfCars 8
param **.numberOfCarsPerPlatoon 8
param **.numberOfLanes 1
param **.numericController 2
param **.traffic.nCars 8
param **.traffic.nLanes 1
param **.traffic.platoonInsertDistance 5m
param **.traffic.platoonInsertHeadway 0.5s
param **.traffic.platoonInsertSpeed 150kmph
param **.traffic.platoonInsertTime "1 s"
param **.traffic.platoonLeaderHeadway 1.2s
param **.traffic.platoonSize 8
param **.traffic.platooningVType "\"vtypeauto\""
param **.traffic_type "\"PlatoonsTrafficManager\""
param *.**.nic.mac1609_4.bitrate 6Mbps
param *.**.nic.mac1609_4.txPower 100mW
param *.**.nic.mac1609_4.useServiceChannel false
param *.**.nic.phy80211p.analogueModels "xmldoc(\"config.xml\")"
param *.**.nic.phy80211p.decider "xmldoc(\"config.xml\")"
param *.**.nic.phy80211p.maxTXPower 100mW
param *.**.nic.phy80211p.sensitivity -94dBm
param *.**.nic.phy80211p.thermalNoise -95dBm
param *.**.nic.phy80211p.usePropagationDelay true
param *.**.nic.phy80211p.useThermalNoise true
param *.annotations.draw false
param *.connectionManager.alpha 2.0
param *.connectionManager.carrierFrequency "5.890e9 Hz"
param *.connectionManager.pMax 100mW
param *.connectionManager.sat -94dBm
param *.connectionManager.sendDirect true
param *.manager.autoShutdown true
param *.manager.commandLine "\"sumo --remote-port $port --seed $seed --configuration-file $configFile\""
param *.manager.configFile "\"./sumocfg/freeway.sumo.cfg\""
param *.manager.host "\"localhost\""
param *.manager.margin 25
param *.manager.moduleDisplayString "\"\""
param *.manager.moduleName "\"node\""
param *.manager.moduleType "\"Car\""
param *.manager.updateInterval 0.01s
param *.node[*].appl.attackStart 30s
param *.node[*].appl.attackerType 1
param *.node[*].appl.simulationDuration "60 s"
param *.node[*].appl_type "\"SimplePlatooningApp\""
param *.node[*].helper.nCars 8
param *.node[*].helper.nLanes 1
param *.node[*].helper.platoonSize 8
param *.node[*].helper_type "\"PositionHelper\""
param *.node[*].mobility.x 0
param *.node[*].mobility.y 0
param *.node[*].mobility.z 1.895
param *.node[*].prot.attackStart 30s
param *.node[*].prot.attackerType 1
param *.node[*].prot.attackingNode 3
param *.node[*].prot.beaconingInterval 0.1s
param *.node[*].prot.fakeAcc "(1 == 4)"
param *.node[*].prot.fakePos "(1 == 2)"
param *.node[*].prot.fakeSpeed "(1 == 3)"
param *.node[*].prot.maliciousAcc "-30 mpss"
param *.node[*].prot.maliciousSpeed 150kmph
param *.node[*].prot.packetSize 200
param *.node[*].prot.priority 2
param *.node[*].prot.shiftX "7 m"
param *.node[*].prot.useControllerAcceleration true
param *.node[*].protocol_type "\"SimplePlatooningBeaconing\""
param *.node[*].scenario.accHeadway 0.1s
param *.node[*].scenario.caccC1 0.5
param *.node[*].scenario.caccOmegaN "0.2 Hz"
param *.node[*].scenario.caccSpacing 5m
param *.node[*].scenario.caccXi 1
param *.node[*].scenario.controller "\"PLOEG\""
param *.node[*].scenario.engineTau "0.5 s"
param *.node[*].scenario.leaderHeadway 1.2s
param *.node[*].scenario.leaderOscillationFrequency "0.2 Hz"
param *.node[*].scenario.leaderSpeed 150kmph
param *.node[*].scenario.oscillationAmplitude "10 kmph"
param *.node[*].scenario.ploegH 0.5s
param *.node[*].scenario.ploegKd 0.7
param *.node[*].scenario.ploegKp 0.2
param *.node[*].scenario.startOscillating "5 s"
param *.node[*].scenario.useRealisticEngine false
param *.node[*].scenario_type "\"SinusoidalScenario\""
param *.node[*].unicast.packetLossRate 0
param *.obstacles.debug false
param *.playgroundSizeX 65000m
param *.playgroundSizeY 25000m
param *.playgroundSizeZ 50m
param *.world.use2D false
param *.world.useTorus false

vector 0  scenario.node[0].appl  distance  ETV
vector 1  scenario.node[0].appl  relativeSpeed  ETV
vector 2  scenario.node[0].appl  nodeId  ETV
vector 6  scenario.node[0].appl  acceleration  ETV
vector 7  scenario.node[0].appl  controllerAcceleration  ETV
vector 3  scenario.node[0].appl  speed  ETV
vector 4  scenario.node[0].appl  posx  ETV
vector 5  scenario.node[0].appl  posy  ETV
vector 22  scenario.node[1].appl  distance  ETV
vector 23  scenario.node[1].appl  relativeSpeed  ETV
vector 24  scenario.node[1].appl  nodeId  ETV
vector 28  scenario.node[1].appl  acceleration  ETV
vector 29  scenario.node[1].appl  controllerAcceleration  ETV
vector 25  scenario.node[1].appl  speed  ETV
vector 26  scenario.node[1].appl  posx  ETV
vector 27  scenario.node[1].appl  posy  ETV
vector 44  scenario.node[2].appl  distance  ETV
vector 45  scenario.node[2].appl  relativeSpeed  ETV
vector 46  scenario.node[2].appl  nodeId  ETV
vector 50  scenario.node[2].appl  acceleration  ETV
vector 51  scenario.node[2].appl  controllerAcceleration  ETV
vector 47  scenario.node[2].appl  speed  ETV
vector 48  scenario.node[2].appl  posx  ETV
vector 49  scenario.node[2].appl  posy  ETV
vector 66  scenario.node[3].appl  distance  ETV
vector 67  scenario.node[3].appl  relativeSpeed  ETV
vector 68  scenario.node[3].appl  nodeId  ETV
vector 72  scenario.node[3].appl  acceleration  ETV
vector 73  scenario.node[3].appl  controllerAcceleration  ETV
vector 69  scenario.node[3].appl  speed  ETV
vector 70  scenario.node[3].appl  posx  ETV
vector 71  scenario.node[3].appl  posy  ETV
vector 88  scenario.node[4].appl  distance  ETV
vector 89  scenario.node[4].appl  relativeSpeed  ETV
vector 90  scenario.node[4].appl  nodeId  ETV
vector 94  scenario.node[4].appl  acceleration  ETV
vector 95  scenario.node[4].appl  controllerAcceleration  ETV
vector 91  scenario.node[4].appl  speed  ETV
vector 92  scenario.node[4].appl  posx  ETV
vector 93  scenario.node[4].appl  posy  ETV
vector 110  scenario.node[5].appl  distance  ETV
vector 111  scenario.node[5].appl  relativeSpeed  ETV
vector 112  scenario.node[5].appl  nodeId  ETV
vector 116  scenario.node[5].appl  acceleration  ETV
vector 117  scenario.node[5].appl  controllerAcceleration  ETV
vector 113  scenario.node[5].appl  speed  ETV
vector 114  scenario.node[5].appl  posx  ETV
vector 115  scenario.node[5].appl  posy  ETV
vector 132  scenario.node[6].appl  distance  ETV
vector 133  scenario.node[6].appl  relativeSpeed  ETV
vector 134  scenario.node[6].appl  nodeId  ETV
vector 138  scenario.node[6].appl  acceleration  ETV
vector 139  scenario.node[6].appl  controllerAcceleration  ETV
vector 135  scenario.node[6].appl  speed  ETV
vector 136  scenario.node[6].appl  posx  ETV
vector 137  scenario.node[6].appl  posy  ETV
vector 154  scenario.node[7].appl  distance  ETV
vector 155  scenario.node[7].appl  relativeSpeed  ETV
vector 156  scenario.node[7].appl  nodeId  ETV
vector 160  scenario.node[7].appl  acceleration  ETV
vector 161  scenario.node[7].appl  controllerAcceleration  ETV
vector 157  scenario.node[7].appl  speed  ETV
vector 158  scenario.node[7].appl  posx  ETV
vector 159  scenario.node[7].appl  posy  ETV
vector 168  scenario.node[7].prot  frontDelay  ETV
vector 166  scenario.node[7].prot  frontDelayId  ETV
vector 146  scenario.node[6].prot  frontDelay  ETV
vector 144  scenario.node[6].prot  frontDelayId  ETV
vector 35  scenario.node[1].prot  leaderDelay  ETV
vector 33  scenario.node[1].prot  leaderDelayId  ETV
vector 36  scenario.node[1].prot  frontDelay  ETV
vector 34  scenario.node[1].prot  frontDelayId  ETV
vector 57  scenario.node[2].prot  leaderDelay  ETV
vector 55  scenario.node[2].prot  leaderDelayId  ETV
vector 79  scenario.node[3].prot  leaderDelay  ETV
vector 77  scenario.node[3].prot  leaderDelayId  ETV
vector 101  scenario.node[4].prot  leaderDelay  ETV
vector 99  scenario.node[4].prot  leaderDelayId  ETV
vector 123  scenario.node[5].prot  leaderDelay  ETV
vector 121  scenario.node[5].prot  leaderDelayId  ETV
vector 145  scenario.node[6].prot  leaderDelay  ETV
vector 143  scenario.node[6].prot  leaderDelayId  ETV
vector 167  scenario.node[7].prot  leaderDelay  ETV
vector 165  scenario.node[7].prot  leaderDelayId  ETV
vector 102  scenario.node[4].prot  frontDelay  ETV
vector 100  scenario.node[4].prot  frontDelayId  ETV
vector 80  scenario.node[3].prot  frontDelay  ETV
vector 78  scenario.node[3].prot  frontDelayId  ETV
vector 124  scenario.node[5].prot  frontDelay  ETV
vector 122  scenario.node[5].prot  frontDelayId  ETV
vector 58  scenario.node[2].prot  frontDelay  ETV
vector 56  scenario.node[2].prot  frontDelayId  ETV
vector 8  scenario.node[0].prot  nodeId  ETV
vector 9  scenario.node[0].prot  busyTime  ETV
vector 10  scenario.node[0].prot  collisions  ETV
vector 30  scenario.node[1].prot  nodeId  ETV
vector 31  scenario.node[1].prot  busyTime  ETV
vector 32  scenario.node[1].prot  collisions  ETV
vector 52  scenario.node[2].prot  nodeId  ETV
vector 53  scenario.node[2].prot  busyTime  ETV
vector 54  scenario.node[2].prot  collisions  ETV
vector 74  scenario.node[3].prot  nodeId  ETV
vector 75  scenario.node[3].prot  busyTime  ETV
vector 76  scenario.node[3].prot  collisions  ETV
vector 96  scenario.node[4].prot  nodeId  ETV
vector 97  scenario.node[4].prot  busyTime  ETV
vector 98  scenario.node[4].prot  collisions  ETV
vector 118  scenario.node[5].prot  nodeId  ETV
vector 119  scenario.node[5].prot  busyTime  ETV
vector 120  scenario.node[5].prot  collisions  ETV
vector 140  scenario.node[6].prot  nodeId  ETV
vector 141  scenario.node[6].prot  busyTime  ETV
vector 142  scenario.node[6].prot  collisions  ETV
vector 162  scenario.node[7].prot  nodeId  ETV
vector 163  scenario.node[7].prot  busyTime  ETV
vector 164  scenario.node[7].prot  collisions  ETV
7	11248 13862 232 328174 1.11 59.91 589 -1.5 1.5 -14.445978168666 993.24092374633
6	25110 18591 232 328174 1.11 59.91 589 -1.4722746794739 1.4513434175775 -12.507273387293 675.29835233824
5	43701 12081 232 328174 1.11 59.91 589 36.55 36.55 21527.95 786846.5725
4	55782 17907 232 328174 1.11 59.91 589 247.89330558737 2702.2094381742 869625.02723689 1580177982.8606
3	73689 17882 232 328174 1.11 59.91 589 40.376854748618 43.631381416411 24584.394369227 1026576.1694128
1	91571 9725 232 328174 1.11 59.91 589 0 0 0 0
0	101296 10314 232 328174 1.11 59.91 589 -1 -1 -589 589
2	111610 9725 232 328174 1.11 59.91 589 0 0 0 0
10	121335 858 5168 328662 2 60 59 0 0 0 0
9	122193 1154 5168 328662 2 60 59 0.023297 0.02625 1.545797 0.040508375209
8	123347 799 5168 328662 2 60 59 0 0 0 0
29	124146 19035 233 328175 1.11 59.91 589 -1.5826819219037 1.5 4.5215734290616 515.20958130198
28	143181 19249 233 328175 1.11 59.91 589 -1.501938293206 1.3653701955576 6.2332241356643 371.82861973907
27	162430 12670 233 328175 1.11 59.91 589 36.55 36.55 21527.95 786846.5725
26	175100 18484 233 328175 1.11 59.91 589 218.05996208191 2679.778956692 854758.86879911 1538532204.8163
25	193584 18490 233 328175 1.11 59.91 589 40.512046885585 43.699431869898 24659.077267989 1032711.135998
23	212074 19291 233 328175 1.11 59.91 589 -3.080249243158 1.8889527329046 -74.557826028354 613.425897319
22	231365 18506 233 328175 1.11 59.91 589 16.822797426252 25.833343505636 12511.65209576 269731.59375959
24	249871 10314 233 328175 1.11 59.91 589 1 1 589 589
36	260185 23703 1034 328420 1.262219084911 59.962221151262 588 0.099987182519 0.100012951231 58.800002255643 5.8800004516304
35	283888 23703 1034 328420 1.262219084911 59.962221151262 588 0.099987182519 0.100012951231 58.800002255643 5.8800004516304
34	307591 16110 1034 328420 1.262219084911 59.962221151262 588 1 1 588 588
33	323701 16110 1034 328420 1.262219084911 59.962221151262 588 1 1 588 588
32	339811 858 5169 328663 2 60 59 0 0 0 0
31	340669 1213 5169 328663 2 60 59 0.023296 0.02625 1.545796 0.040508328616
30	341882 858 5169 328663 2 60 59 1 1 59 59
51	342740 19217 234 328176 1.11 59.91 589 -1.5981548222299 1.4239099753935 6.6896472304367 409.94410266854
50	361957 19275 234 328176 1.11 59.91 589 -1.4653996775948 1.2681609194132 5.9033671192189 299.73859148403
49	381232 12670 234 328176 1.11 59.91 589 36.55 36.55 21527.95 786846.5725
48	393902 18495 234 328176 1.11 59.91 589 188.22663383484 2652.6269443637 838772.62972945 1492906189.7652
47	412397 18497 234 328176 1.11 59.91 589 40.622199839185 43.758902646597 24685.875131641 1034947.9715328
45	430894 19487 234 328176 1.11 59.91 589 -0.76850513596266 0.63909158164553 -26.860195892975 89.142754127874
44	450381 18503 234 328176 1.11 59.91 589 22.281410010128 25.833923055023 13630.775026929 315808.11714064
46	468884 10314 234 328176 1.11 59.91 589 2 2 1178 2356
58	479198 23693 1312 328707 1.302598980531 60.002600963504 588 0.099999932011 0.100012940566 58.800002172265 5.880000434623
57	502891 23683 1040 328426 1.262219184425 59.962221241837 588 0.09998718242 0.100012951381 58.800002246704 5.8800004498426
56	526574 16127 1312 328707 1.302598980531 60.002600963504 588 2 2 1176 2352
55	542701 16107 1040 328426 1.262219184425 59.962221241837 588 2 2 1176 2352
54	558808 858 5170 328664 2 60 59 0 0 0 0
53	559666 1213 5170 328664 2 60 59 0.023297 0.02625 1.545797 0.040508375209
52	560879 858 5170 328664 2 60 59 2 2 118 236
73	561737 19267 235 328177 1.11 59.91 589 -1.5460116318669 1.3161175070764 6.064823530631 334.55808005852
72	581004 19345 235 328177 1.11 59.91 589 -1.399389345557 1.2121177006271 3.6068710622715 247.61885160003
71	600349 12670 235 328177 1.11 59.91 589 36.55 36.55 21527.95 786846.5725
70	613019 18503 235 328177 1.11 59.91 589 158.39330558777 2625.5848661136 822773.19603168 1448142478.5077
69	631522 18495 235 328177 1.11 59.91 589 40.715928617931 43.807380697724 24713.704780229 1037304.4683453
67	650017 19514 235 328177 1.11 59.91 589 -0.71991933187102 0.61225346814641 -27.888682259084 72.729694080352
66	669531 18499 235 328177 1.11 59.91 589 22.332255307266 25.83332824707 13643.990290745 316440.7339574
68	688030 10314 235 328177 1.11 59.91 589 3 3 1767 5301
80	698344 23696 1176 328556 1.287875482964 59.987877512582 588 0.09999993236 0.100012933084 58.80000221891 5.8800004439518
79	722040 23683 1046 328432 1.262219283938 59.962221332078 588 0.099987182364 0.100012951451 58.800002237432 5.8800004479882
78	745723 16113 1176 328556 1.287875482964 59.987877512582 588 3 3 1764 5292
77	761836 16113 1046 328432 1.262219283938 59.962221332078 588 3 3 1764 5292
76	777949 858 5171 328665 2 60 59 0 0 0 0
75	778807 1213 5171 328665 2 60 59 0.023297 0.02625 1.545797 0.040508375209
74	780020 858 5171 328665 2 60 59 3 3 177 531
95	780878 19288 236 328178 1.11 59.91 589 -1.4655612710127 1.2592242730584 3.4906211703126 279.90471661073
94	800166 19384 236 328178 1.11 59.91 589 -1.323528662094 1.1564133021075 0.56522505212371 209.53205407171
93	819550 12670 236 328178 1.11 59.91 589 36.55 36.55 21527.95 786846.5725
92	832220 18495 236 328178 1.11 59.91 589 128.5599697113 2598.7003455688 806759.54652862 1404238658.9407
91	850715 18486 236 328178 1.11 59.91 589 40.797151793711 44.098642939116 24743.085823873 1039819.1919674
89	869201 19557 236 328178 1.11 59.91 589 -0.66911315656228 0.58447432900531 -29.417112355183 59.733165247609
88	888758 18504 236 328178 1.11 59.91 589 22.376136601425 25.833335876465 13658.237123926 317124.29059515
90	907262 10314 236 328178 1.11 59.91 589 4 4 2356 9424
102	917576 24276 1108 328488 1.276581383451 59.976583421816 588 0.099999932433 0.100012934161 58.800002227657 5.8800004457012
101	941852 24293 1052 328438 1.262219383451 59.962221421806 588 0.099987182337 0.100012951427 58.800002227647 5.8800004460312
100	966145 16709 1108 328488 1.276581383451 59.976583421816 588 4 4 2352 9408
99	982854 16120 1052 328438 1.262219383451 59.962221421806 588 4 4 2352 9408
98	998974 858 5172 328666 2 60 59 0 0 0 0
97	999832 1213 5172 328666 2 60 59 0.023297 0.02625 1.545797 0.040508375209
96	1001045 858 5172 328666 2 60 59 4 4 236 944
117	1001903 19965 237 328179 1.11 59.91 589 -1.3737696943682 1.2291176679483 0.25514208688227 239.07068490916
116	1021868 20017 237 328179 1.11 59.91 589 -1.2444065514423 1.1352299292163 -1.9998251296727 182.08327707693
115	1041885 13259 237 328179 1.11 59.91 589 36.55 36.55 21527.95 786846.5725
114	1055144 19090 237 328179 1.11 59.91 589 98.726633834839 2571.9571737672 790730.04429614 1361192012.2557
113	1074234 19079 237 328179 1.11 59.91 589 40.871095307224 44.609543182702 24773.898722195 1042476.9247251
111	1093313 20161 237 328179 1.11 59.91 589 -0.61968144690564 0.55595002146538 -30.818550572518 49.454208795198
110	1113474 19099 237 328179 1.11 59.91 589 22.415465618222 25.836035286756 13674.118490444 317888.25293501
112	1132573 10903 237 328179 1.11 59.91 589 5 5 2945 14725
124	1143476 24280 1244 328624 1.297505681991 59.997507691604 588 0.099987061551 0.100012980817 58.800002198905 5.8800004402869
123	1167756 24278 1058 328444 1.262219482964 59.962221511054 588 0.099987182327 0.100012951328 58.800002217382 5.8800004439782
122	1192034 16703 1244 328624 1.297505681991 59.997507691604 588 5 5 2940 14700
121	1208737 16703 1058 328444 1.262219482964 59.962221511054 588 5 5 2940 14700
120	1225440 917 5173 328667 2 60 59 0 0 0 0
119	1226357 1272 5173 328667 2 60 59 0.023297 0.02625 1.545797 0.040508375209
118	1227629 917 5173 328667 2 60 59 5 5 295 1475
139	1228546 19981 238 328180 1.11 59.91 589 -1.2826713232537 1.2895435609222 -2.3201056284513 207.67278367474
138	1248527 20011 238 328180 1.11 59.91 589 -1.1695059514878 1.2076069695198 -3.2902640545615 162.49780365877
137	1268538 13259 238 328180 1.11 59.91 589 36.55 36.55 21527.95 786846.5725
136	1281797 19094 238 328180 1.11 59.91 589 68.893301773071 2545.2919356697 774686.27713448 1319002916.5638
135	1300891 19098 238 328180 1.11 59.91 589 40.939829022083 45.065113549818 24805.536440125 1045221.0431121
133	1319989 20190 238 328180 1.11 59.91 589 -0.57472471685682 0.52726262064277 -31.617719678111 41.072820839489
132	1340179 19079 238 328180 1.11 59.91 589 22.451974583679 25.833332061768 13688.399916027 318570.01346901
134	1359258 10903 238 328180 1.11 59.91 589 6 6 3534 21204
146	1370161 24295 970 328350 1.247596587345 59.947598731341 588 0.099987107178 0.100012988166 58.800002333288 5.8800004671624
145	1394456 24275 1064 328450 1.262219582478 59.962221600021 588 0.099987182319 0.100012951199 58.800002206835 5.8800004418688
144	1418731 16709 970 328350 1.247596587345 59.947598731341 588 6 6 3528 21168
143	1435440 16692 1064 328450 1.262219582478 59.962221600021 588 6 6 3528 21168
142	1452132 917 5174 328668 2 60 59 0 0 0 0
141	1453049 1272 5174 328668 2 60 59 0.023297 0.02625 1.545797 0.040508375209
140	1454321 917 5174 328668 2 60 59 6 6 354 2124
161	1455238 19986 239 328181 1.11 59.91 589 -1.1961885059109 1.3161488450582 -3.5408708191394 185.72594830584
160	1475224 20016 239 328181 1.11 59.91 589 -1.0978497606501 1.2473361532145 -3.1489300503914 148.89435110118
159	1495240 13259 239 328181 1.11 59.91 589 36.55 36.55 21527.95 786846.5725
158	1508499 19083 239 328181 1.11 59.91 589 39.059966850281 2518.6283512611 758627.49122028 1277672292.6931
157	1527582 19086 239 328181 1.11 59.91 589 41.00272139862 45.470194089468 24837.240920816 1047985.8678259
155	1546668 20185 239 328181 1.11 59.91 589 -0.5428637725887 0.49964776297363 -31.67157805075 34.691642490587
154	1566853 19079 239 328181 1.11 59.91 589 22.485286448837 25.833334922791 13703.420003812 319289.76776599
156	1585932 10903 239 328181 1.11 59.91 589 7 7 4123 28861
168	1596835 24273 832 328212 1.212138288805 59.912127464494 588 0.099987189283 0.100012937456 58.799989364981 5.8799978733302
167	1621108 24276 1070 328456 1.262219681991 59.962221688959 588 0.099987182311 0.100012951084 58.80000219626 5.8800004397538
166	1645384 16702 832 328212 1.212138288805 59.912127464494 588 7 7 4116 28812
165	1662086 16707 1070 328456 1.262219681991 59.962221688959 588 7 7 4116 28812
164	1678793 917 5175 328669 2 60 59 0 0 0 0
163	1679710 1272 5175 328669 2 60 59 0.023297 0.02625 1.545797 0.040508375209
162	1680982 917 5175 328669 2 60 59 7 7 413 2891
