version 2
run SinusoidalJammingDetail-594-20170801-18:18:21-7073
attr CACCSpacing 13
attr attackAcc -30
attr attackPos 7
attr attackSpeed 150
attr attackStart 32
attr attacker 1
attr beaconInterval 0.1
attr configname SinusoidalJammingDetail
attr controller 1
attr datetime 20170801-18:18:21
attr experiment SinusoidalJammingDetail
attr fakeAcc "(1 == 4)"
attr fakePos "(1 == 2)"
attr fakeSpeed "(1 == 3)"
attr inifile omnetpp_594.ini
attr iterationvars "$leaderSpeed=120, $controller=1, $CACCSpacing=13, $sController=\"CACC\", $attacker=1, $attackStart=32, $attackSpeed=150, $attackPos=7, $attackAcc=-30, $0=13, $1=0, $nCars=8, $platoonSize=8, $nLanes=1, $beaconInterval=0.1, $priority=2, $packetSize=200, $ploegH=0.5, $leaderHeadway=1.2, $fakeSpeed=(1 == 3), $fakeAcc=(1 == 4), $fakePos=(1 == 2)"
attr iterationvarsf leaderSpeed=120,controller=1,CACCSpacing=13,sController=CACC,attacker=1,attackStart=32,attackSpeed=150,attackPos=7,attackAcc=-30,13,0,nCars=8,platoonSize=8,nLanes=1,beaconInterval=0.1,priority=2,packetSize=200,ploegH=0.5,leaderHeadway=1.2,fakeSpeed=(1_==_3),fakeAcc=(1_==_4),fakePos=(1_==_2)-
attr leaderHeadway 1.2
attr leaderSpeed 120
attr measurement "$leaderSpeed=120, $controller=1, $CACCSpacing=13, $sController=\"CACC\", $attacker=1, $attackStart=32, $attackSpeed=150, $attackPos=7, $attackAcc=-30, $0=13, $1=0, $nCars=8, $platoonSize=8, $nLanes=1, $beaconInterval=0.1, $priority=2, $packetSize=200, $ploegH=0.5, $leaderHeadway=1.2, $fakeSpeed=(1 == 3), $fakeAcc=(1 == 4), $fakePos=(1 == 2)"
attr nCars 8
attr nLanes 1
attr network scenario
attr packetSize 200
attr platoonSize 8
attr ploegH 0.5
attr priority 2
attr processid 7073
attr repetition 4
attr replication #4
attr resultdir results
attr runnumber 594
attr sController "\"CACC\""
attr seedset 4
param **.coreDebug false
param **.debug false
param **.headway 0.1s
param **.numberOfCars 8
param **.numberOfCarsPerPlatoon 8
param **.numberOfLanes 1
param **.numericController 1
param **.traffic.nCars 8
param **.traffic.nLanes 1
param **.traffic.platoonInsertDistance 13m
param **.traffic.platoonInsertHeadway 0s
param **.traffic.platoonInsertSpeed 120kmph
param **.traffic.platoonInsertTime "1 s"
param **.traffic.platoonLeaderHeadway 1.2s
param **.traffic.platoonSize 8
param **.traffic.platooningVType "\"vtypeauto\""
param **.traffic_type "\"PlatoonsTrafficManager\""
param *.**.nic.mac1609_4.bitrate 6Mbps
param *.**.nic.mac1609_4.txPower 100mW
param *.**.nic.mac1609_4.useServiceChannel false
param *.**.nic.phy80211p.analogueModels "xmldoc(\"config.xml\")"
param *.**.nic.phy80211p.decider "xmldoc(\"config.xml\")"
param *.**.nic.phy80211p.maxTXPower 100mW
param *.**.nic.phy80211p.sensitivity -94dBm
param *.**.nic.phy80211p.thermalNoise -95dBm
param *.**.nic.phy80211p.usePropagationDelay true
param *.**.nic.phy80211p.useThermalNoise true
param *.annotations.draw false
param *.connectionManager.alpha 2.0
param *.connectionManager.carrierFrequency "5.890e9 Hz"
param *.connectionManager.pMax 100mW
param *.connectionManager.sat -94dBm
param *.connectionManager.sendDirect true
param *.manager.autoShutdown true
param *.manager.commandLine "\"sumo --remote-port $port --seed $seed --configuration-file $configFile\""
param *.manager.configFile "\"./sumocfg/freeway.sumo.cfg\""
param *.manager.host "\"localhost\""
param *.manager.margin 25
param *.manager.moduleDisplayString "\"\""
param *.manager.moduleName "\"node\""
param *.manager.moduleType "\"Car\""
param *.manager.updateInterval 0.01s
param *.node[*].appl.attackStart 32s
param *.node[*].appl.attackerType 1
param *.node[*].appl.simulationDuration "60 s"
param *.node[*].appl_type "\"SimplePlatooningApp\""
param *.node[*].helper.nCars 8
param *.node[*].helper.nLanes 1
param *.node[*].helper.platoonSize 8
param *.node[*].helper_type "\"PositionHelper\""
param *.node[*].mobility.x 0
param *.node[*].mobility.y 0
param *.node[*].mobility.z 1.895
param *.node[*].prot.attackStart 32s
param *.node[*].prot.attackerType 1
param *.node[*].prot.attackingNode 3
param *.node[*].prot.beaconingInterval 0.1s
param *.node[*].prot.fakeAcc "(1 == 4)"
param *.node[*].prot.fakePos "(1 == 2)"
param *.node[*].prot.fakeSpeed "(1 == 3)"
param *.node[*].prot.maliciousAcc "-30 mpss"
param *.node[*].prot.maliciousSpeed 150kmph
param *.node[*].prot.packetSize 200
param *.node[*].prot.priority 2
param *.node[*].prot.shiftX "7 m"
param *.node[*].prot.useControllerAcceleration true
param *.node[*].protocol_type "\"SimplePlatooningBeaconing\""
param *.node[*].scenario.accHeadway 0.1s
param *.node[*].scenario.caccC1 0.5
param *.node[*].scenario.caccOmegaN "0.2 Hz"
param *.node[*].scenario.caccSpacing 13m
param *.node[*].scenario.caccXi 1
param *.node[*].scenario.controller "\"CACC\""
param *.node[*].scenario.engineTau "0.5 s"
param *.node[*].scenario.leaderHeadway 1.2s
param *.node[*].scenario.leaderOscillationFrequency "0.2 Hz"
param *.node[*].scenario.leaderSpeed 120kmph
param *.node[*].scenario.oscillationAmplitude "10 kmph"
param *.node[*].scenario.ploegH 0.5s
param *.node[*].scenario.ploegKd 0.7
param *.node[*].scenario.ploegKp 0.2
param *.node[*].scenario.startOscillating "5 s"
param *.node[*].scenario.useRealisticEngine false
param *.node[*].scenario_type "\"SinusoidalScenario\""
param *.node[*].unicast.packetLossRate 0
param *.obstacles.debug false
param *.playgroundSizeX 65000m
param *.playgroundSizeY 25000m
param *.playgroundSizeZ 50m
param *.world.use2D false
param *.world.useTorus false

vector 0  scenario.node[0].appl  distance  ETV
vector 1  scenario.node[0].appl  relativeSpeed  ETV
vector 2  scenario.node[0].appl  nodeId  ETV
vector 6  scenario.node[0].appl  acceleration  ETV
vector 7  scenario.node[0].appl  controllerAcceleration  ETV
vector 3  scenario.node[0].appl  speed  ETV
vector 4  scenario.node[0].appl  posx  ETV
vector 5  scenario.node[0].appl  posy  ETV
vector 22  scenario.node[1].appl  distance  ETV
vector 23  scenario.node[1].appl  relativeSpeed  ETV
vector 24  scenario.node[1].appl  nodeId  ETV
vector 28  scenario.node[1].appl  acceleration  ETV
vector 29  scenario.node[1].appl  controllerAcceleration  ETV
vector 25  scenario.node[1].appl  speed  ETV
vector 26  scenario.node[1].appl  posx  ETV
vector 27  scenario.node[1].appl  posy  ETV
vector 44  scenario.node[2].appl  distance  ETV
vector 45  scenario.node[2].appl  relativeSpeed  ETV
vector 46  scenario.node[2].appl  nodeId  ETV
vector 50  scenario.node[2].appl  acceleration  ETV
vector 51  scenario.node[2].appl  controllerAcceleration  ETV
vector 47  scenario.node[2].appl  speed  ETV
vector 48  scenario.node[2].appl  posx  ETV
vector 49  scenario.node[2].appl  posy  ETV
vector 66  scenario.node[3].appl  distance  ETV
vector 67  scenario.node[3].appl  relativeSpeed  ETV
vector 68  scenario.node[3].appl  nodeId  ETV
vector 72  scenario.node[3].appl  acceleration  ETV
vector 73  scenario.node[3].appl  controllerAcceleration  ETV
vector 69  scenario.node[3].appl  speed  ETV
vector 70  scenario.node[3].appl  posx  ETV
vector 71  scenario.node[3].appl  posy  ETV
vector 88  scenario.node[4].appl  distance  ETV
vector 89  scenario.node[4].appl  relativeSpeed  ETV
vector 90  scenario.node[4].appl  nodeId  ETV
vector 94  scenario.node[4].appl  acceleration  ETV
vector 95  scenario.node[4].appl  controllerAcceleration  ETV
vector 91  scenario.node[4].appl  speed  ETV
vector 92  scenario.node[4].appl  posx  ETV
vector 93  scenario.node[4].appl  posy  ETV
vector 110  scenario.node[5].appl  distance  ETV
vector 111  scenario.node[5].appl  relativeSpeed  ETV
vector 112  scenario.node[5].appl  nodeId  ETV
vector 116  scenario.node[5].appl  acceleration  ETV
vector 117  scenario.node[5].appl  controllerAcceleration  ETV
vector 113  scenario.node[5].appl  speed  ETV
vector 114  scenario.node[5].appl  posx  ETV
vector 115  scenario.node[5].appl  posy  ETV
vector 132  scenario.node[6].appl  distance  ETV
vector 133  scenario.node[6].appl  relativeSpeed  ETV
vector 134  scenario.node[6].appl  nodeId  ETV
vector 138  scenario.node[6].appl  acceleration  ETV
vector 139  scenario.node[6].appl  controllerAcceleration  ETV
vector 135  scenario.node[6].appl  speed  ETV
vector 136  scenario.node[6].appl  posx  ETV
vector 137  scenario.node[6].appl  posy  ETV
vector 154  scenario.node[7].appl  distance  ETV
vector 155  scenario.node[7].appl  relativeSpeed  ETV
vector 156  scenario.node[7].appl  nodeId  ETV
vector 160  scenario.node[7].appl  acceleration  ETV
vector 161  scenario.node[7].appl  controllerAcceleration  ETV
vector 157  scenario.node[7].appl  speed  ETV
vector 158  scenario.node[7].appl  posx  ETV
vector 159  scenario.node[7].appl  posy  ETV
vector 102  scenario.node[4].prot  frontDelay  ETV
vector 100  scenario.node[4].prot  frontDelayId  ETV
vector 35  scenario.node[1].prot  leaderDelay  ETV
vector 33  scenario.node[1].prot  leaderDelayId  ETV
vector 36  scenario.node[1].prot  frontDelay  ETV
vector 34  scenario.node[1].prot  frontDelayId  ETV
vector 57  scenario.node[2].prot  leaderDelay  ETV
vector 55  scenario.node[2].prot  leaderDelayId  ETV
vector 79  scenario.node[3].prot  leaderDelay  ETV
vector 77  scenario.node[3].prot  leaderDelayId  ETV
vector 101  scenario.node[4].prot  leaderDelay  ETV
vector 99  scenario.node[4].prot  leaderDelayId  ETV
vector 123  scenario.node[5].prot  leaderDelay  ETV
vector 121  scenario.node[5].prot  leaderDelayId  ETV
vector 145  scenario.node[6].prot  leaderDelay  ETV
vector 143  scenario.node[6].prot  leaderDelayId  ETV
vector 167  scenario.node[7].prot  leaderDelay  ETV
vector 165  scenario.node[7].prot  leaderDelayId  ETV
vector 80  scenario.node[3].prot  frontDelay  ETV
vector 78  scenario.node[3].prot  frontDelayId  ETV
vector 146  scenario.node[6].prot  frontDelay  ETV
vector 144  scenario.node[6].prot  frontDelayId  ETV
vector 58  scenario.node[2].prot  frontDelay  ETV
vector 56  scenario.node[2].prot  frontDelayId  ETV
vector 124  scenario.node[5].prot  frontDelay  ETV
vector 122  scenario.node[5].prot  frontDelayId  ETV
vector 168  scenario.node[7].prot  frontDelay  ETV
vector 166  scenario.node[7].prot  frontDelayId  ETV
vector 8  scenario.node[0].prot  nodeId  ETV
vector 9  scenario.node[0].prot  busyTime  ETV
vector 10  scenario.node[0].prot  collisions  ETV
vector 30  scenario.node[1].prot  nodeId  ETV
vector 31  scenario.node[1].prot  busyTime  ETV
vector 32  scenario.node[1].prot  collisions  ETV
vector 52  scenario.node[2].prot  nodeId  ETV
vector 53  scenario.node[2].prot  busyTime  ETV
vector 54  scenario.node[2].prot  collisions  ETV
vector 74  scenario.node[3].prot  nodeId  ETV
vector 75  scenario.node[3].prot  busyTime  ETV
vector 76  scenario.node[3].prot  collisions  ETV
vector 96  scenario.node[4].prot  nodeId  ETV
vector 97  scenario.node[4].prot  busyTime  ETV
vector 98  scenario.node[4].prot  collisions  ETV
vector 118  scenario.node[5].prot  nodeId  ETV
vector 119  scenario.node[5].prot  busyTime  ETV
vector 120  scenario.node[5].prot  collisions  ETV
vector 140  scenario.node[6].prot  nodeId  ETV
vector 141  scenario.node[6].prot  busyTime  ETV
vector 142  scenario.node[6].prot  collisions  ETV
vector 162  scenario.node[7].prot  nodeId  ETV
vector 163  scenario.node[7].prot  busyTime  ETV
vector 164  scenario.node[7].prot  collisions  ETV
7	232	1.11	1.264609664986e-06
7	788	1.21	1.2370558053476e-06
7	1344	1.31	1.1922643139428e-06
7	1900	1.41	1.1341353030048e-06
7	2456	1.51	1.0661075364737e-06
7	3012	1.61	9.9117950469463e-07
7	3568	1.71	9.1193474816009e-07
7	4124	1.81	8.3057002342457e-07
7	4680	1.91	7.4892560064654e-07
7	5244	2.01	6.6851609403784e-07
7	5800	2.11	5.9056183232542e-07
7	6356	2.21	5.1602003736662e-07
7	6912	2.31	4.4561458878434e-07
7	7468	2.41	3.7986517753552e-07
7	8024	2.51	3.1911461206846e-07
7	8580	2.61	2.6355444049386e-07
7	9136	2.71	2.1324864718508e-07
7	9692	2.81	1.6815555881067e-07
7	10248	2.91	1.2814749794643e-07
7	10812	3.01	9.3028553749264e-08
7	11368	3.11	6.255026363533e-08
7	11924	3.21	3.6425589655664e-08
7	12480	3.31	1.4340962195547e-08
7	13036	3.41	-4.0332679418498e-09
7	13592	3.51	-1.9034231968362e-08
7	14148	3.61	-3.0998883460143e-08
7	14704	3.71	-4.0258086642098e-08
7	15260	3.81	-4.7131671010447e-08
7	15816	3.91	-5.1925063360159e-08
7	16380	4.01	-5.4926061920924e-08
7	16936	4.11	-5.6402775783226e-08
7	17492	4.21	-5.6602530662531e-08
7	18048	4.31	-5.5751151251116e-08
7	18604	4.41	-5.4052726738973e-08
7	19160	4.51	-5.1689909241759e-08
7	19716	4.61	-4.8824482234977e-08
7	20272	4.71	-4.5598198994412e-08
7	20828	4.81	-4.2133798672239e-08
7	21384	4.91	-3.8536192903393e-08
7	21949	5.01	-3.4893794520485e-08
7	22506	5.11	0.34814783973202
7	23063	5.21	0.68726932535991
7	23620	5.31	1.0064705905053
7	24177	5.41	1.2963311346507
7	24734	5.51	1.5
7	25291	5.61	1.5
7	25848	5.71	1.5
7	26405	5.81	1.5
7	26962	5.91	1.5
7	27527	6.01	1.5
7	28084	6.11	1.5
7	28641	6.21	1.5
7	29198	6.31	1.5
7	29755	6.41	1.5
7	30312	6.51	1.4919234058593
7	30869	6.61	1.2264993209595
7	31426	6.71	0.92305383326438
7	31983	6.81	0.5890810138258
7	32540	6.91	0.23235621116515
7	33105	7.01	-0.13919560237429
7	33662	7.11	-0.51762846938546
7	34219	7.21	-0.89509994250727
7	34776	7.31	-1.2639902910536
7	35333	7.41	-1.5
7	35890	7.51	-1.5
7	36447	7.61	-1.5
7	37004	7.71	-1.5
7	37561	7.81	-1.5
7	38118	7.91	-1.5
7	38683	8.01	-1.5
7	39240	8.11	-1.5
7	39797	8.21	-1.5
7	40354	8.31	-1.5
7	40911	8.41	-1.5
7	41468	8.51	-1.5
7	42025	8.61	-1.5
7	42582	8.71	-1.5
7	43139	8.81	-1.5
7	43696	8.91	-1.5
7	44261	9.01	-1.5
7	44818	9.11	-1.5
7	45375	9.21	-1.5
7	45932	9.31	-1.5
7	46489	9.41	-1.5
7	47046	9.51	-1.178453590773
7	47603	9.61	-0.73985166452546
7	48160	9.71	-0.29046662090423
7	48717	9.81	0.15868205640434
7	49274	9.91	0.59737147663756
7	49839	10.01	1.0162504339375
7	50396	10.11	1.4069035496629
7	50953	10.21	1.5
7	51510	10.31	1.5
7	52067	10.41	1.5
7	52624	10.51	1.5
7	53181	10.61	1.5
7	53738	10.71	1.5
7	54295	10.81	1.5
7	54852	10.91	1.5
7	55417	11.01	1.5
7	55974	11.11	1.5
7	56531	11.21	1.5
7	57088	11.31	1.5
7	57645	11.41	1.5
7	58202	11.51	1.5
7	58759	11.61	1.5
7	59316	11.71	1.5
7	59873	11.81	1.5
7	60430	11.91	1.1420569522446
7	60995	12.01	0.73271074165216
7	61552	12.11	0.30763491694659
7	62109	12.21	-0.12290183408495
7	62666	12.31	-0.5491742287245
7	63223	12.41	-0.96209331723149
7	63780	12.51	-1.3532900275905
7	64337	12.61	-1.5
7	64894	12.71	-1.5
7	65451	12.81	-1.5
7	66008	12.91	-1.5
7	66573	13.01	-1.5
7	67130	13.11	-1.5
7	67687	13.21	-1.5
7	68244	13.31	-1.5
7	68801	13.41	-1.5
7	69358	13.51	-1.5
7	69915	13.61	-1.5
7	70472	13.71	-1.5
7	71029	13.81	-1.5
7	71586	13.91	-1.5
7	72151	14.01	-1.5
7	72708	14.11	-1.5
7	73265	14.21	-1.5
7	73822	14.31	-1.5
7	74379	14.41	-1.300830579343
7	74936	14.51	-0.88835736023715
7	75493	14.61	-0.45792464377335
7	76050	14.71	-0.020297800504288
7	76607	14.81	0.41435934755211
7	77164	14.91	0.83657487482698
7	77729	15.01	1.2376491838765
7	78286	15.11	1.5
7	78843	15.21	1.5
7	79400	15.31	1.5
7	79957	15.41	1.5
7	80514	15.51	1.5
7	81071	15.61	1.5
7	81628	15.71	1.5
7	82185	15.81	1.5
7	82742	15.91	1.5
7	83307	16.01	1.5
7	83864	16.11	1.5
7	84421	16.21	1.5
7	84978	16.31	1.5
7	85535	16.41	1.5
7	86092	16.51	1.5
7	86649	16.61	1.5
7	87206	16.71	1.5
7	87763	16.81	1.5
7	88320	16.91	1.2451238477297
7	88885	17.01	0.83347870134542
7	89442	17.11	0.40470958876118
7	89999	17.21	-0.030598062226161
7	90556	17.31	-0.46243980387321
7	91113	17.41	-0.88148335305221
7	91670	17.51	-1.2791500631775
7	92227	17.61	-1.5
7	92784	17.71	-1.5
7	93341	17.81	-1.5
7	93898	17.91	-1.5
7	94463	18.01	-1.5
7	95020	18.11	-1.5
7	95577	18.21	-1.5
7	96134	18.31	-1.5
7	96691	18.41	-1.5
7	97248	18.51	-1.5
7	97805	18.61	-1.5
7	98362	18.71	-1.5
7	98919	18.81	-1.5
7	99476	18.91	-1.5
7	100041	19.01	-1.5
7	100598	19.11	-1.5
7	101155	19.21	-1.5
7	101712	19.31	-1.5
7	102269	19.41	-1.2657245815155
7	102826	19.51	-0.85377693481785
7	103383	19.61	-0.42439560038367
7	103940	19.71	0.011767371265513
7	104497	19.81	0.44464851836144
7	105054	19.91	0.86486384400278
7	105619	20.01	1.2637899041103
7	106176	20.11	1.5
7	106733	20.21	1.5
7	107290	20.31	1.5
7	107847	20.41	1.5
7	108404	20.51	1.5
7	108961	20.61	1.5
7	109518	20.71	1.5
7	110075	20.81	1.5
7	110632	20.91	1.5
7	111197	21.01	1.5
7	111754	21.11	1.5
7	112311	21.21	1.5
7	112868	21.31	1.5
7	113425	21.41	1.5
7	113982	21.51	1.5
7	114539	21.61	1.5
7	115096	21.71	1.5
7	115653	21.81	1.5
7	116210	21.91	1.2580915517739
7	116775	22.01	0.84625491634584
7	117332	22.11	0.41709956367264
7	117889	22.21	-0.018747163545136
7	118446	22.31	-0.45124369149665
7	119003	22.41	-0.87102520538844
7	119560	22.51	-1.269484879462
7	120117	22.61	-1.5
7	120674	22.71	-1.5
7	121231	22.81	-1.5
7	121788	22.91	-1.5
7	122353	23.01	-1.5
7	122910	23.11	-1.5
7	123467	23.21	-1.5
7	124024	23.31	-1.5
7	124581	23.41	-1.5
7	125138	23.51	-1.5
7	125695	23.61	-1.5
7	126252	23.71	-1.5
7	126809	23.81	-1.5
7	127366	23.91	-1.5
7	127931	24.01	-1.5
7	128488	24.11	-1.5
7	129045	24.21	-1.5
7	129602	24.31	-1.5
7	130159	24.41	-1.260923965114
7	130716	24.51	-0.84904615684758
7	131273	24.61	-0.41980696481334
7	131830	24.71	0.016157099443966
7	132387	24.81	0.44879633965816
7	132944	24.91	0.86873882266688
7	133509	25.01	1.2673715557178
7	134066	25.11	1.5
7	134623	25.21	1.5
7	135180	25.31	1.5
7	135737	25.41	1.5
7	136294	25.51	1.5
7	136851	25.61	1.5
7	137408	25.71	1.5
7	137965	25.81	1.5
7	138522	25.91	1.5
7	139087	26.01	1.5
7	139644	26.11	1.5
7	140201	26.21	1.5
7	140758	26.31	1.5
7	141315	26.41	1.5
7	141872	26.51	1.5
7	142429	26.61	1.5
7	142986	26.71	1.5
7	143543	26.81	1.5
7	144100	26.91	1.2598728518647
7	144665	27.01	0.8480103225158
7	145222	27.11	0.41880224309308
7	145779	27.21	-0.017118277440183
7	146336	27.31	-0.44970455708226
7	146893	27.41	-0.86958730431697
7	147450	27.51	-1.2681558149808
7	148007	27.61	-1.5
7	148564	27.71	-1.5
7	149121	27.81	-1.5
7	149678	27.91	-1.5
7	150243	28.01	-1.5
7	150800	28.11	-1.5
7	151357	28.21	-1.5
7	151914	28.31	-1.5
7	152471	28.41	-1.5
7	153028	28.51	-1.5
7	153585	28.61	-1.5
7	154142	28.71	-1.5
7	154699	28.81	-1.5
7	155256	28.91	-1.5
7	155821	29.01	-1.5
7	156378	29.11	-1.5
7	156935	29.21	-1.5
7	157492	29.31	-1.5
7	158049	29.41	-1.2602629232501
7	158606	29.51	-0.84839472385493
7	159163	29.61	-0.41917509845157
7	159720	29.71	0.016761581288016
7	160277	29.81	0.44936751475895
7	160834	29.91	0.86927243012207
7	161399	30.01	1.2678647739113
7	161956	30.11	1.5
7	162513	30.21	1.5
7	163070	30.31	1.5
7	163627	30.41	1.5
7	164184	30.51	1.5
7	164741	30.61	1.5
7	165298	30.71	1.5
7	165855	30.81	1.5
7	166412	30.91	1.5
7	166977	31.01	1.5
7	167534	31.11	1.5
7	168091	31.21	1.5
7	168648	31.31	1.5
7	169205	31.41	1.5
7	169762	31.51	1.5
7	170319	31.61	1.5
7	170876	31.71	1.5
7	171433	31.81	1.5
7	171990	31.91	1.2601181665228
7	172555	32.01	0.84825207129951
7	173112	32.11	0.41903673064589
7	173669	32.21	-0.016893952361208
7	174226	32.31	-0.44949259223428
7	174783	32.41	-0.8693892809349
7	175340	32.51	-1.2679727801759
7	175897	32.61	-1.5
7	176454	32.71	-1.5
7	177011	32.81	-1.5
7	177568	32.91	-1.5
7	178133	33.01	-1.5
7	178690	33.11	-1.5
7	179247	33.21	-1.5
7	179804	33.31	-1.5
7	180361	33.41	-1.5
7	180918	33.51	-1.5
7	181475	33.61	-1.5
7	182032	33.71	-1.5
7	182589	33.81	-1.5
7	183146	33.91	-1.5
7	183711	34.01	-1.5
7	184268	34.11	-1.5
7	184825	34.21	-1.5
7	185382	34.31	-1.5
7	185939	34.41	-1.2601718862023
7	186496	34.51	-0.84830501011423
7	187053	34.61	-0.4190880793765
7	187610	34.71	0.016844829036998
7	188167	34.81	0.44944617558727
7	188724	34.91	0.86934591722826
7	189289	35.01	1.2679326987089
7	189846	35.11	1.5
7	190403	35.21	1.5
7	190960	35.31	1.5
7	191517	35.41	1.5
7	192074	35.51	1.5
7	192631	35.61	1.5
7	193188	35.71	1.5
7	193745	35.81	1.5
7	194302	35.91	1.5
7	194867	36.01	1.5
7	195424	36.11	1.5
7	195981	36.21	1.5
7	196538	36.31	1.5
7	197095	36.41	1.5
7	197652	36.51	1.5
7	198209	36.61	1.5
7	198766	36.71	1.5
7	199323	36.81	1.5
7	199880	36.91	1.2601519506582
7	200445	37.01	0.8482853643515
7	201002	37.11	0.41906902369898
6	232	1.11	1.8587371641843e-07
6	788	1.21	3.7715039979958e-07
6	1344	1.31	5.2730015909219e-07
6	1900	1.41	6.4101826069418e-07
6	2456	1.51	7.2280812446479e-07
6	3012	1.61	7.7694011224594e-07
6	3568	1.71	8.0741315855448e-07
6	4124	1.81	8.1792990158647e-07
6	4680	1.91	8.1188602507609e-07
6	5244	2.01	7.9236670558203e-07
6	5800	2.11	7.6214163868826e-07
6	6356	2.21	7.2367640768789e-07
6	6912	2.31	6.7914172063865e-07
6	7468	2.41	6.3042691067494e-07
6	8024	2.51	5.791562784907e-07
6	8580	2.61	5.2670969807878e-07
6	9136	2.71	4.7423895921384e-07
6	9692	2.81	4.226883731917e-07
6	10248	2.91	3.7281679965417e-07
6	10812	3.01	3.2521825232834e-07
6	11368	3.11	2.8033753096679e-07
6	11924	3.21	2.3849224817241e-07
6	12480	3.31	1.9988561916762e-07
6	13036	3.41	1.6463133079014e-07
6	13592	3.51	1.3275709420668e-07
6	14148	3.61	1.0422880336591e-07
6	14704	3.71	7.8954798254927e-08
6	15260	3.81	5.6805049553077e-08
6	15816	3.91	3.7617553516611e-08
6	16380	4.01	2.1201884692346e-08
6	16936	4.11	7.354117315117e-09
6	17492	4.21	-4.1374903503311e-09
6	18048	4.31	-1.3491074923877e-08
6	18604	4.41	-2.0921930854456e-08
6	19160	4.51	-2.6641799877325e-08
6	19716	4.61	-3.0856028843118e-08
6	20272	4.71	-3.3759306461434e-08
6	20828	4.81	-3.5534952758098e-08
6	21384	4.91	-3.6354919075166e-08
6	21949	5.01	-3.6375524814503e-08
6	22506	5.11	0.0068263931019885
6	23063	5.21	0.074594779098902
6	23620	5.31	0.19005129180201
6	24177	5.41	0.34050267454901
6	24734	5.51	0.51301634170429
6	25291	5.61	0.6902545459468
6	25848	5.71	0.83572669343468
6	26405	5.81	0.95506452230651
6	26962	5.91	1.0529631073332
6	27527	6.01	1.1332740451195
6	28084	6.11	1.1991569863937
6	28641	6.21	1.2532039452594
6	29198	6.31	1.2975412760781
6	29755	6.41	1.3339133300356
6	30312	6.51	1.3635927180715
6	30869	6.61	1.3702053544215
6	31426	6.71	1.3272611853779
6	31983	6.81	1.2373810849141
6	32540	6.91	1.1040433684336
6	33105	7.01	0.93147091325463
6	33662	7.11	0.72451589912248
6	34219	7.21	0.48854317732108
6	34776	7.31	0.22931329054146
6	35333	7.41	-0.044839403605579
6	35890	7.51	-0.30626147870336
6	36447	7.61	-0.52071863355891
6	37004	7.71	-0.69664819594024
6	37561	7.81	-0.84097171333752
6	38118	7.91	-0.95936726546597
6	38683	8.01	-1.0564928553684
6	39240	8.11	-1.1361696679188
6	39797	8.21	-1.2015324056335
6	40354	8.31	-1.2551526163939
6	40911	8.41	-1.2991398651295
6	41468	8.51	-1.3352247298471
6	42025	8.61	-1.3648268872679
6	42582	8.71	-1.3891109667817
6	43139	8.81	-1.4090323701247
6	43696	8.91	-1.4253748594882
6	44261	9.01	-1.4387813928529
6	44818	9.11	-1.4497794197055
6	45375	9.21	-1.4588016323373
6	45932	9.31	-1.4662029891298
6	46489	9.41	-1.4722746795918
6	47046	9.51	-1.4696249147882
6	47603	9.61	-1.3967850640618
6	48160	9.71	-1.2587757643061
6	48717	9.81	-1.066095221988
6	49274	9.91	-0.82923335039382
6	49839	10.01	-0.55852907855325
6	50396	10.11	-0.26404116091285
6	50953	10.21	0.03943269852158
6	51510	10.31	0.30182609737963
6	52067	10.41	0.5170800760304
6	52624	10.51	0.69366331145844
6	53181	10.61	0.83852306842829
6	53738	10.71	0.95735852377814
6	54295	10.81	1.0548449875394
6	54852	10.91	1.1348178423468
6	55417	11.01	1.2004234378246
6	55974	11.11	1.2542428765379
6	56531	11.21	1.2983935615857
6	57088	11.31	1.3346125010031
6	57645	11.41	1.3643246463779
6	58202	11.51	1.3886989543209
6	58759	11.61	1.4086943764035
6	59316	11.71	1.4250975869132
6	59873	11.81	1.438553932767
6	60430	11.91	1.4345627372599
6	60995	12.01	1.3623449188415
6	61552	12.11	1.2299875654037
6	62109	12.21	1.0461448397272
6	62666	12.31	0.81967864243424
6	63223	12.41	0.55952045898948
6	63780	12.51	0.27454262943465
6	64337	12.61	-0.022341644934443
6	64894	12.71	-0.28780548062457
6	65451	12.81	-0.50557828691211
6	66008	12.91	-0.68422783830826
6	66573	13.01	-0.83078269407011
6	67130	13.11	-0.95100872083407
6	67687	13.21	-1.0496359374898
6	68244	13.31	-1.1305446069947
6	68801	13.41	-1.1969178964684
6	69358	13.51	-1.2513671116459
6	69915	13.61	-1.2960344327446
6	70472	13.71	-1.332677193669
6	71029	13.81	-1.3627370202968
6	71586	13.91	-1.3873965479647
6	72151	14.01	-1.4076259495631
6	72708	14.11	-1.4242211047723
6	73265	14.21	-1.4378349121337
6	73822	14.31	-1.4490029758569
6	74379	14.41	-1.4542593951873
6	74936	14.51	-1.4067454390094
6	75493	14.61	-1.2938574955413
6	76050	14.71	-1.1248409052385
6	76607	14.81	-0.90912582144114
6	77164	14.91	-0.65618298377643
6	77729	15.01	-0.37539052555147
6	78286	15.11	-0.078063005102535
6	78843	15.21	0.20543869666909
6	79400	15.31	0.438008835728
6	79957	15.41	0.62879735390737
6	80514	15.51	0.78531039043099
6	81071	15.61	0.9137055938524
6	81628	15.71	1.0190343806897
6	82185	15.81	1.1054406719012
6	82742	15.91	1.1763239259942
6	83307	16.01	1.2344728829795
6	83864	16.11	1.2821752809813
6	84421	16.21	1.3213078620829
6	84978	16.31	1.3534102084591
6	85535	16.41	1.3797453137308
6	86092	16.51	1.4013492725667
6	86649	16.61	1.4190720434684
6	87206	16.71	1.4336108884464
6	87763	16.81	1.4455378052055
6	88320	16.91	1.450294906531
6	88885	17.01	1.3935559567486
6	89442	17.11	1.273336870139
6	89999	17.21	1.0986742440473
6	90556	17.31	0.87879676590887
6	91113	17.41	0.62298329275308
6	91670	17.51	0.34043137852748
6	92227	17.61	0.043031849074282
6	92784	17.71	-0.23417644595867
6	93341	17.81	-0.46158379950043
6	93898	17.91	-0.64813703535762
6	94463	18.01	-0.80117566522802
6	95020	18.11	-0.92672064505877
6	95577	18.21	-1.0297112558206
6	96134	18.31	-1.1141994282617
6	96691	18.41	-1.1835091568834
6	97248	18.51	-1.240367274923
6	97805	18.61	-1.2870107353912
6	98362	18.71	-1.3252746188869
6	98919	18.81	-1.3566643306589
6	99476	18.91	-1.3824148273436
6	100041	19.01	-1.4035392035204
6	100598	19.11	-1.420868549603
6	101155	19.21	-1.4350846492
6	101712	19.31	-1.4467468023348
6	102269	19.41	-1.4517201941764
6	102826	19.51	-1.3984004323888
6	103383	19.61	-1.2808993810097
6	103940	19.71	-1.1083308503785
6	104497	19.81	-0.88999806036867
6	105054	19.91	-0.63525086466854
6	105619	20.01	-0.35335363991464
6	106176	20.11	-0.055983891308387
6	106733	20.21	0.22355126013309
6	107290	20.31	0.45286744637281
6	107847	20.41	0.64098658988812
6	108404	20.51	0.79530980944469
6	108961	20.61	0.92190860023891
6	109518	20.71	1.0257637030342
6	110075	20.81	1.1109610600442
6	110632	20.91	1.1808525670212
6	111197	21.01	1.2381879459461
6	111754	21.11	1.2852229265711
6	112311	21.21	1.3238079929607
6	112868	21.31	1.3554611865736
6	113425	21.41	1.3814278301389
6	113982	21.51	1.4027295220423
6	114539	21.61	1.4202043287803
6	115096	21.71	1.4345397567773
6	115653	21.81	1.4462998007623
6	116210	21.91	1.4512038299465
6	116775	22.01	1.3966149622043
6	117332	22.11	1.2781048258539
6	117889	22.21	1.104758616826
6	118446	22.31	0.88585193074024
6	119003	22.41	0.63070830476093
6	119560	22.51	0.34856734380924
6	120117	22.61	0.051185654368879
6	120674	22.71	-0.22748748564823
6	121231	22.81	-0.45609652228151
6	121788	22.91	-0.64363555681979
6	122353	23.01	-0.79748288496191
6	122910	23.11	-0.92369127904561
6	123467	23.21	-1.0272261205614
6	124024	23.31	-1.1121607517779
6	124581	23.41	-1.1818367320963
6	125138	23.51	-1.2389953040923
6	125695	23.61	-1.2858852414531
6	126252	23.71	-1.324351321847
6	126809	23.81	-1.355906905502
6	127366	23.91	-1.3817934749042
6	127931	24.01	-1.403029478103
6	128488	24.11	-1.4204503972238
6	129045	24.21	-1.4347416186069
6	129602	24.31	-1.4464653977718
6	130159	24.41	-1.4513952146871
6	130716	24.51	-1.397277320676
6	131273	24.61	-1.2791416668563
6	131830	24.71	-1.1060840673039
6	132387	24.81	-0.88739036841758
6	132944	24.91	-0.63239387292811
6	133509	25.01	-0.35034337811126
6	134066	25.11	-0.052966136912147
6	134623	25.21	0.22602686982154
6	135180	25.31	0.45489830857193
6	135737	25.41	0.64265260423966
6	136294	25.51	0.7966765214853
6	136851	25.61	0.92302978013734
6	137408	25.71	1.0266834610576
6	137965	25.81	1.1117155819754
6	138522	25.91	1.1814715378058
6	139087	26.01	1.2386957175771
6	139644	26.11	1.2856394761641
6	140201	26.21	1.3241497087101
6	140758	26.31	1.3557415125085
6	141315	26.41	1.3816577950429
6	141872	26.51	1.4029181733591
6	142429	26.61	1.4203590885664
6	142986	26.71	1.4346667137048
6	143543	26.81	1.4464039496623
6	144100	26.91	1.4513241957715
6	144665	27.01	1.3970315218245
6	145222	27.11	1.2787568961947
6	145779	27.21	1.1055921925461
6	146336	27.31	0.8868194531928
6	146893	27.41	0.63176835684402
6	147450	27.51	0.34968428947408
6	148007	27.61	0.052305397196051
6	148564	27.71	-0.22656890652399
6	149121	27.81	-0.45534296745871
6	149678	27.91	-0.64301737940156
6	150243	28.01	-0.79697576417033
6	150800	28.11	-0.92327526336575
6	151357	28.21	-1.0268848428062
6	151914	28.31	-1.1118807851517
6	152471	28.41	-1.1816070619503
6	153028	28.51	-1.2388068945782
6	153585	28.61	-1.2857306800278
6	154142	28.71	-1.3242245276466
6	154699	28.81	-1.3558028900952
6	155256	28.91	-1.3817081460417
6	155821	29.01	-1.4029594787168
6	156378	29.11	-1.4203929733462
6	156935	29.21	-1.4346945110262
6	157492	29.31	-1.446426753148
6	158049	29.41	-1.4513505510308
6	158606	29.51	-1.3971227384744
6	159163	29.61	-1.2788996857282
6	159720	29.71	-1.1057747287524
6	160277	29.81	-0.88703132157306
6	160834	29.91	-0.63200048778285
6	161399	30.01	-0.34992887930017
6	161956	30.11	-0.052550599748002
6	162513	30.21	0.22636775502534
6	163070	30.31	0.45517795316812
6	163627	30.41	0.64288201020943
6	164184	30.51	0.79686471428317
6	164741	30.61	0.92318416377992
6	165298	30.71	1.0268101094155
6	165855	30.81	1.1118194777403
6	166412	30.91	1.181556768519
6	166977	31.01	1.2387656364474
6	167534	31.11	1.2856968339904
6	168091	31.21	1.3241967621056
6	168648	31.31	1.3557801126808
6	169205	31.41	1.3816894606293
6	169762	31.51	1.4029441501705
6	170319	31.61	1.4203803985993
6	170876	31.71	1.434684195354
6	171433	31.81	1.4464182907048
6	171990	31.91	1.4513407705138
6	172555	32.01	1.3970888876891
6	173112	32.11	1.2788466960821
6	173669	32.21	1.1057069889901
6	174226	32.31	0.88695269654835
6	174783	32.41	0.63191434325702
6	175340	32.51	0.3498381112415
6	175897	32.61	0.052459604304289
6	176454	32.71	-0.22644240298533
6	177011	32.81	-0.45523919049515
6	177568	32.91	-0.64293224614715
6	178133	33.01	-0.79690592524955
6	178690	33.11	-0.92321797112547
6	179247	33.21	-1.0268378432137
6	179804	33.31	-1.1118422291148
6	180361	33.41	-1.1815754325717
6	180918	33.51	-1.2387809474724
6	181475	33.61	-1.2857093943644
6	182032	33.71	-1.3242070659885
6	182589	33.81	-1.3557885654535
6	183146	33.91	-1.3816963948479
6	183711	34.01	-1.4029498386442
6	184268	34.11	-1.4203850651299
6	184825	34.21	-1.4346880235344
6	185382	34.31	-1.4464214311445
6	185939	34.41	-1.4513444000933
6	186496	34.51	-1.3971014498217
6	187053	34.61	-1.2788663607076
6	187610	34.71	-1.1057321274301
6	188167	34.81	-0.88698187454312
6	188724	34.91	-0.63194631176131
6	189289	35.01	-0.34987179555372
6	189846	35.11	-0.052493373000573
6	190403	35.21	0.22641470089155
6	190960	35.31	0.45521646513009
6	191517	35.41	0.64291360343205
6	192074	35.51	0.79689063173021
6	192631	35.61	0.92320542511359
6	193188	35.71	1.0268275511145
6	193745	35.81	1.1118337860083
6	194302	35.91	1.1815685062835
6	194867	36.01	1.2387752655023
6	195424	36.11	1.2857047331693
6	195981	36.21	1.3242032421843
6	196538	36.31	1.3557854286027
6	197095	36.41	1.3816938215371
6	197652	36.51	1.4029477276331
6	198209	36.61	1.4203833333653
6	198766	36.71	1.4346866028845
6	199323	36.81	1.4464202657166
6	199880	36.91	1.4513430531451
6	200445	37.01	1.397096787975
6	201002	37.11	1.2788590631018
5	232	1.11	36.55
5	788	1.21	36.55
5	1344	1.31	36.55
5	1900	1.41	36.55
5	2456	1.51	36.55
5	3012	1.61	36.55
5	3568	1.71	36.55
5	4124	1.81	36.55
5	4680	1.91	36.55
5	5244	2.01	36.55
5	5800	2.11	36.55
5	6356	2.21	36.55
5	6912	2.31	36.55
5	7468	2.41	36.55
5	8024	2.51	36.55
5	8580	2.61	36.55
5	9136	2.71	36.55
5	9692	2.81	36.55
5	10248	2.91	36.55
5	10812	3.01	36.55
5	11368	3.11	36.55
5	11924	3.21	36.55
5	12480	3.31	36.55
5	13036	3.41	36.55
5	13592	3.51	36.55
5	14148	3.61	36.55
5	14704	3.71	36.55
5	15260	3.81	36.55
5	15816	3.91	36.55
5	16380	4.01	36.55
5	16936	4.11	36.55
5	17492	4.21	36.55
5	18048	4.31	36.55
5	18604	4.41	36.55
5	19160	4.51	36.55
5	19716	4.61	36.55
5	20272	4.71	36.55
5	20828	4.81	36.55
5	21384	4.91	36.55
5	21949	5.01	36.55
5	22506	5.11	36.55
5	23063	5.21	36.55
5	23620	5.31	36.55
5	24177	5.41	36.55
5	24734	5.51	36.55
5	25291	5.61	36.55
5	25848	5.71	36.55
5	26405	5.81	36.55
5	26962	5.91	36.55
5	27527	6.01	36.55
5	28084	6.11	36.55
5	28641	6.21	36.55
5	29198	6.31	36.55
5	29755	6.41	36.55
5	30312	6.51	36.55
5	30869	6.61	36.55
5	31426	6.71	36.55
5	31983	6.81	36.55
5	32540	6.91	36.55
5	33105	7.01	36.55
5	33662	7.11	36.55
5	34219	7.21	36.55
5	34776	7.31	36.55
5	35333	7.41	36.55
5	35890	7.51	36.55
5	36447	7.61	36.55
5	37004	7.71	36.55
5	37561	7.81	36.55
5	38118	7.91	36.55
5	38683	8.01	36.55
5	39240	8.11	36.55
5	39797	8.21	36.55
5	40354	8.31	36.55
5	40911	8.41	36.55
5	41468	8.51	36.55
5	42025	8.61	36.55
5	42582	8.71	36.55
5	43139	8.81	36.55
5	43696	8.91	36.55
5	44261	9.01	36.55
5	44818	9.11	36.55
5	45375	9.21	36.55
5	45932	9.31	36.55
5	46489	9.41	36.55
5	47046	9.51	36.55
5	47603	9.61	36.55
5	48160	9.71	36.55
5	48717	9.81	36.55
5	49274	9.91	36.55
5	49839	10.01	36.55
5	50396	10.11	36.55
5	50953	10.21	36.55
5	51510	10.31	36.55
5	52067	10.41	36.55
5	52624	10.51	36.55
5	53181	10.61	36.55
5	53738	10.71	36.55
5	54295	10.81	36.55
5	54852	10.91	36.55
5	55417	11.01	36.55
5	55974	11.11	36.55
5	56531	11.21	36.55
5	57088	11.31	36.55
5	57645	11.41	36.55
5	58202	11.51	36.55
5	58759	11.61	36.55
5	59316	11.71	36.55
5	59873	11.81	36.55
5	60430	11.91	36.55
5	60995	12.01	36.55
5	61552	12.11	36.55
5	62109	12.21	36.55
5	62666	12.31	36.55
5	63223	12.41	36.55
5	63780	12.51	36.55
5	64337	12.61	36.55
5	64894	12.71	36.55
5	65451	12.81	36.55
5	66008	12.91	36.55
5	66573	13.01	36.55
5	67130	13.11	36.55
5	67687	13.21	36.55
5	68244	13.31	36.55
5	68801	13.41	36.55
5	69358	13.51	36.55
5	69915	13.61	36.55
5	70472	13.71	36.55
5	71029	13.81	36.55
5	71586	13.91	36.55
5	72151	14.01	36.55
5	72708	14.11	36.55
5	73265	14.21	36.55
5	73822	14.31	36.55
5	74379	14.41	36.55
5	74936	14.51	36.55
5	75493	14.61	36.55
5	76050	14.71	36.55
5	76607	14.81	36.55
5	77164	14.91	36.55
5	77729	15.01	36.55
5	78286	15.11	36.55
5	78843	15.21	36.55
5	79400	15.31	36.55
5	79957	15.41	36.55
5	80514	15.51	36.55
5	81071	15.61	36.55
5	81628	15.71	36.55
5	82185	15.81	36.55
5	82742	15.91	36.55
5	83307	16.01	36.55
5	83864	16.11	36.55
5	84421	16.21	36.55
5	84978	16.31	36.55
5	85535	16.41	36.55
5	86092	16.51	36.55
5	86649	16.61	36.55
5	87206	16.71	36.55
5	87763	16.81	36.55
5	88320	16.91	36.55
5	88885	17.01	36.55
5	89442	17.11	36.55
5	89999	17.21	36.55
5	90556	17.31	36.55
5	91113	17.41	36.55
5	91670	17.51	36.55
5	92227	17.61	36.55
5	92784	17.71	36.55
5	93341	17.81	36.55
5	93898	17.91	36.55
5	94463	18.01	36.55
5	95020	18.11	36.55
5	95577	18.21	36.55
5	96134	18.31	36.55
5	96691	18.41	36.55
5	97248	18.51	36.55
5	97805	18.61	36.55
5	98362	18.71	36.55
5	98919	18.81	36.55
5	99476	18.91	36.55
5	100041	19.01	36.55
5	100598	19.11	36.55
5	101155	19.21	36.55
5	101712	19.31	36.55
5	102269	19.41	36.55
5	102826	19.51	36.55
5	103383	19.61	36.55
5	103940	19.71	36.55
5	104497	19.81	36.55
5	105054	19.91	36.55
5	105619	20.01	36.55
5	106176	20.11	36.55
5	106733	20.21	36.55
5	107290	20.31	36.55
5	107847	20.41	36.55
5	108404	20.51	36.55
5	108961	20.61	36.55
5	109518	20.71	36.55
5	110075	20.81	36.55
5	110632	20.91	36.55
5	111197	21.01	36.55
5	111754	21.11	36.55
5	112311	21.21	36.55
5	112868	21.31	36.55
5	113425	21.41	36.55
5	113982	21.51	36.55
5	114539	21.61	36.55
5	115096	21.71	36.55
5	115653	21.81	36.55
5	116210	21.91	36.55
5	116775	22.01	36.55
5	117332	22.11	36.55
5	117889	22.21	36.55
5	118446	22.31	36.55
5	119003	22.41	36.55
5	119560	22.51	36.55
5	120117	22.61	36.55
5	120674	22.71	36.55
5	121231	22.81	36.55
5	121788	22.91	36.55
5	122353	23.01	36.55
5	122910	23.11	36.55
5	123467	23.21	36.55
5	124024	23.31	36.55
5	124581	23.41	36.55
5	125138	23.51	36.55
5	125695	23.61	36.55
5	126252	23.71	36.55
5	126809	23.81	36.55
5	127366	23.91	36.55
5	127931	24.01	36.55
5	128488	24.11	36.55
5	129045	24.21	36.55
5	129602	24.31	36.55
5	130159	24.41	36.55
5	130716	24.51	36.55
5	131273	24.61	36.55
5	131830	24.71	36.55
5	132387	24.81	36.55
5	132944	24.91	36.55
5	133509	25.01	36.55
5	134066	25.11	36.55
5	134623	25.21	36.55
5	135180	25.31	36.55
5	135737	25.41	36.55
5	136294	25.51	36.55
5	136851	25.61	36.55
5	137408	25.71	36.55
5	137965	25.81	36.55
5	138522	25.91	36.55
5	139087	26.01	36.55
5	139644	26.11	36.55
5	140201	26.21	36.55
5	140758	26.31	36.55
5	141315	26.41	36.55
5	141872	26.51	36.55
5	142429	26.61	36.55
5	142986	26.71	36.55
5	143543	26.81	36.55
5	144100	26.91	36.55
5	144665	27.01	36.55
5	145222	27.11	36.55
5	145779	27.21	36.55
5	146336	27.31	36.55
5	146893	27.41	36.55
5	147450	27.51	36.55
5	148007	27.61	36.55
5	148564	27.71	36.55
5	149121	27.81	36.55
5	149678	27.91	36.55
5	150243	28.01	36.55
5	150800	28.11	36.55
5	151357	28.21	36.55
5	151914	28.31	36.55
5	152471	28.41	36.55
5	153028	28.51	36.55
5	153585	28.61	36.55
5	154142	28.71	36.55
5	154699	28.81	36.55
5	155256	28.91	36.55
5	155821	29.01	36.55
5	156378	29.11	36.55
5	156935	29.21	36.55
5	157492	29.31	36.55
5	158049	29.41	36.55
5	158606	29.51	36.55
5	159163	29.61	36.55
5	159720	29.71	36.55
5	160277	29.81	36.55
5	160834	29.91	36.55
5	161399	30.01	36.55
5	161956	30.11	36.55
5	162513	30.21	36.55
5	163070	30.31	36.55
5	163627	30.41	36.55
5	164184	30.51	36.55
5	164741	30.61	36.55
5	165298	30.71	36.55
5	165855	30.81	36.55
5	166412	30.91	36.55
5	166977	31.01	36.55
5	167534	31.11	36.55
5	168091	31.21	36.55
5	168648	31.31	36.55
5	169205	31.41	36.55
5	169762	31.51	36.55
5	170319	31.61	36.55
5	170876	31.71	36.55
5	171433	31.81	36.55
5	171990	31.91	36.55
5	172555	32.01	36.55
5	173112	32.11	36.55
5	173669	32.21	36.55
5	174226	32.31	36.55
5	174783	32.41	36.55
5	175340	32.51	36.55
5	175897	32.61	36.55
5	176454	32.71	36.55
5	177011	32.81	36.55
5	177568	32.91	36.55
5	178133	33.01	36.55
5	178690	33.11	36.55
5	179247	33.21	36.55
5	179804	33.31	36.55
5	180361	33.41	36.55
5	180918	33.51	36.55
5	181475	33.61	36.55
5	182032	33.71	36.55
5	182589	33.81	36.55
5	183146	33.91	36.55
5	183711	34.01	36.55
5	184268	34.11	36.55
5	184825	34.21	36.55
5	185382	34.31	36.55
5	185939	34.41	36.55
5	186496	34.51	36.55
5	187053	34.61	36.55
5	187610	34.71	36.55
5	188167	34.81	36.55
5	188724	34.91	36.55
5	189289	35.01	36.55
5	189846	35.11	36.55
5	190403	35.21	36.55
5	190960	35.31	36.55
5	191517	35.41	36.55
5	192074	35.51	36.55
5	192631	35.61	36.55
5	193188	35.71	36.55
5	193745	35.81	36.55
5	194302	35.91	36.55
5	194867	36.01	36.55
5	195424	36.11	36.55
5	195981	36.21	36.55
5	196538	36.31	36.55
5	197095	36.41	36.55
5	197652	36.51	36.55
5	198209	36.61	36.55
5	198766	36.71	36.55
5	199323	36.81	36.55
5	199880	36.91	36.55
5	200445	37.01	36.55
5	201002	37.11	36.55
4	232	1.11	168.60852546732
4	788	1.21	171.94185867614
4	1344	1.31	175.27519188903
4	1900	1.41	178.60852510742
4	2456	1.51	181.94185833239
4	3012	1.61	185.2751915647
4	3568	1.71	188.60852480484
4	4124	1.81	191.94185805307
4	4680	1.91	195.27519130948
4	5244	2.01	198.60852457396
4	5800	2.11	201.94185784631
4	6356	2.21	205.2751911262
4	6912	2.31	208.60852441324
4	7468	2.41	211.94185770697
4	8024	2.51	215.2751910069
4	8580	2.61	218.60852431253
4	9136	2.71	221.94185762331
4	9692	2.81	225.27519093873
4	10248	2.91	228.60852425828
4	10812	3.01	231.94185758146
4	11368	3.11	235.27519090781
4	11924	3.21	238.60852423687
4	12480	3.31	241.94185756824
4	13036	3.41	245.27519090154
4	13592	3.51	248.60852423643
4	14148	3.61	251.94185757258
4	14704	3.71	255.27519090972
4	15260	3.81	258.60852424761
4	15816	3.91	261.94185758603
4	16380	4.01	265.27519092479
4	16936	4.11	268.60852426374
4	17492	4.21	271.94185760273
4	18048	4.31	275.27519094167
4	18604	4.41	278.60852428045
4	19160	4.51	281.94185761902
4	19716	4.61	285.27519095731
4	20272	4.71	288.60852429528
4	20828	4.81	291.94185763292
4	21384	4.91	295.2751909702
4	21949	5.01	298.60852430711
4	22506	5.11	301.94185900895
4	23063	5.21	305.27542021214
4	23620	5.31	308.60998150836
4	24177	5.41	311.9467675253
4	24734	5.51	315.28732824667
4	25291	5.61	318.63339853494
4	25848	5.71	321.98666387468
4	26405	5.81	325.34852630635
4	26962	5.91	328.72013612329
4	27527	6.01	332.10243696664
4	28084	6.11	335.49620295086
4	28641	6.21	338.90206911938
4	29198	6.31	342.32055642903
4	29755	6.41	345.75209224585
4	30312	6.51	349.19702712717
4	30869	6.61	352.65561882291
4	31426	6.71	356.12782090013
4	31983	6.81	359.61310684228
4	32540	6.91	363.11048787304
4	33105	7.01	366.61854927959
4	33662	7.11	370.13549394744
4	34219	7.21	373.65919195064
4	34776	7.31	377.18723502986
4	35333	7.41	380.71699524812
4	35890	7.51	384.2457596782
4	36447	7.61	387.77103051374
4	37004	7.71	391.29074060943
4	37561	7.81	394.80319418614
4	38118	7.91	398.30700011435
4	38683	8.01	401.8010171833
4	39240	8.11	405.2843092027
4	39797	8.21	408.75610817043
4	40354	8.31	412.21578405727
4	40911	8.41	415.66282001981
4	41468	8.51	419.09679206643
4	42025	8.61	422.51735237634
4	42582	8.71	425.92421561533
4	43139	8.81	429.31714770999
4	43696	8.91	432.69595663857
4	44261	9.01	436.06048487637
4	44818	9.11	439.41060319827
4	45375	9.21	442.74620559465
4	45932	9.31	446.06720510071
4	46489	9.41	449.37353037503
4	47046	9.51	452.66512515558
4	47603	9.61	455.94218474275
4	48160	9.71	459.20557045786
4	48717	9.81	462.45677406331
4	49274	9.91	465.69781267214
4	49839	10.01	468.93112412386
4	50396	10.11	472.15946413531
4	50953	10.21	475.38580546574
4	51510	10.31	478.61307632907
4	52067	10.41	481.84379803446
4	52624	10.51	485.08004540775
4	53181	10.61	488.32352052883
4	53738	10.71	491.575619696
4	54295	10.81	494.83748836024
4	54852	10.91	498.11006619028
4	55417	11.01	501.39412404179
4	55974	11.11	504.69029428489
4	56531	11.21	507.99909568334
4	57088	11.31	511.32095380411
4	57645	11.41	514.65621776035
4	58202	11.51	518.00517394641
4	58759	11.61	521.36805730543
4	59316	11.71	524.74506057262
4	59873	11.81	528.13634185797
4	60430	11.91	531.54201606734
4	60995	12.01	534.96187817095
4	61552	12.11	538.39508285284
4	62109	12.21	541.84020101167
4	62666	12.31	545.29530675681
4	63223	12.41	548.75806619952
4	63780	12.51	552.22582667619
4	64337	12.61	555.69570597864
4	64894	12.71	559.16481535771
4	65451	12.81	562.630609039
4	66008	12.91	566.09098791773
4	66573	13.01	569.54422999689
4	67130	13.11	572.98892263916
4	67687	13.21	576.4239069899
4	68244	13.31	579.84823238469
4	68801	13.41	583.2611189476
4	69358	13.51	586.6619269087
4	69915	13.61	590.05013143385
4	70472	13.71	593.42530197625
4	71029	13.81	596.78708533755
4	71586	13.91	600.1351917721
4	72151	14.01	603.46938358753
4	72708	14.11	606.78946579332
4	73265	14.21	610.09527842934
4	73822	14.31	613.38669027256
4	74379	14.41	616.66359445542
4	74936	14.51	619.92605751579
4	75493	14.61	623.17469475969
4	76050	14.71	626.41074992173
4	76607	14.81	629.63600881927
4	77164	14.91	632.8527049365
4	77729	15.01	636.06342487551
4	78286	15.11	639.27101455469
4	78843	15.21	642.47841684778
4	79400	15.31	645.68834090801
4	79957	15.41	648.90302847112
4	80514	15.51	652.12431854123
4	81071	15.61	655.35371974223
4	81628	15.71	658.59246967116
4	82185	15.81	661.84158358867
4	82742	15.91	665.10189436208
4	83307	16.01	668.3740852327
4	83864	16.11	671.65871669637
4	84421	16.21	674.9562485549
4	84978	16.31	678.26705800592
4	85535	16.41	681.59145448287
4	86092	16.51	684.92969182895
4	86649	16.61	688.28197828398
4	87206	16.71	691.64848467715
4	87763	16.81	695.02935114792
4	88320	16.91	698.42469164495
4	88885	17.01	701.83440966426
4	89442	17.11	705.2578068356
4	89999	17.21	708.69356949771
4	90556	17.31	712.13985835375
4	91113	17.41	715.5944008917
4	91670	17.51	719.05458403696
4	92227	17.61	722.51754632214
4	92784	17.71	725.98036210215
4	93341	17.81	729.44037911283
4	93898	17.91	732.89540538234
4	94463	18.01	736.34364273031
4	95020	18.11	739.78361602255
4	95577	18.21	743.21411513521
4	96134	18.31	746.63414734525
4	96691	18.41	750.04289827404
4	97248	18.51	753.43969984741
4	97805	18.61	756.82400401189
4	98362	18.71	760.19536117273
4	98919	18.81	763.55340250564
4	99476	18.91	766.89782544624
4	100041	19.01	770.22838178637
4	100598	19.11	773.54486790888
4	101155	19.21	776.84711677677
4	101712	19.31	780.13499136155
4	102269	19.41	783.40838017083
4	102826	19.51	786.66736837054
4	103383	19.61	789.91262349764
4	103940	19.71	793.14543328631
4	104497	19.81	796.36761719628
4	105054	19.91	799.58143325418
4	105619	20.01	802.78948469926
4	106176	20.11	805.99462720976
4	106733	20.21	809.19979277767
4	107290	20.31	812.4076546991
4	107847	20.41	815.62042334506
4	108404	20.51	818.83991198965
4	108961	20.61	822.0676081492
4	109518	20.71	825.30473210518
4	110075	20.81	828.55228491345
4	110632	20.91	831.81108778846
4	111197	21.01	835.0818144121
4	111754	21.11	838.36501743815
4	112311	21.21	841.66115023521
4	112868	21.31	844.97058472345
4	113425	21.41	848.29362600692
4	113982	21.51	851.63052437724
4	114539	21.61	854.98148516069
4	115096	21.71	858.34667679635
4	115653	21.81	861.72623746293
4	116210	21.91	865.12027956643
4	116775	22.01	868.52871381465
4	117332	22.11	871.95086124786
4	117889	22.21	875.38542450584
4	118446	22.31	878.83057676152
4	119003	22.41	882.28405460596
4	119560	22.51	885.74325114258
4	120117	22.61	889.20530853689
4	120674	22.71	892.66729714158
4	121231	22.81	896.12655145159
4	121788	22.91	899.58086791212
4	122353	23.01	903.02843884072
4	122910	23.11	906.46778130816
4	123467	23.21	909.89767879598
4	124024	23.31	913.31713333533
4	124581	23.41	916.72532624414
4	125138	23.51	920.12158591799
4	125695	23.61	923.50536140733
4	126252	23.71	926.87620074162
4	126809	23.81	930.23373314762
4	127366	23.91	933.57765446211
4	127931	24.01	936.90771516532
4	128488	24.11	940.22371056412
4	129045	24.21	943.52547273888
4	129602	24.31	946.81286393697
4	130159	24.41	950.08577209085
4	130716	24.51	953.34428496109
4	131273	24.61	956.58907726831
4	131830	24.71	959.82144280041
4	132387	24.81	963.04320565028
4	132944	24.91	966.25662722937
4	133509	25.01	969.46431307686
4	134066	25.11	972.66912022688
4	134623	25.21	975.87397919668
4	135180	25.31	979.08155838233
4	135737	25.41	982.29406386791
4	136294	25.51	985.51330541079
4	136851	25.61	988.74076764231
4	137408	25.71	991.97766847728
4	137965	25.81	995.22500703005
4	138522	25.91	998.48360292238
4	139087	26.01	1001.7541285296
4	139644	26.11	1005.0371354336
4	140201	26.21	1008.3330761237
4	140758	26.31	1011.6423217988
4	141315	26.41	1014.9651769711
4	141872	26.51	1018.301891447
4	142429	26.61	1021.6526701544
4	142986	26.71	1025.0176812057
4	143543	26.81	1028.3970625116
4	144100	26.91	1031.7909262654
4	144665	27.01	1035.199184138
4	145222	27.11	1038.6211598356
4	145779	27.21	1042.0555582447
4	146336	27.31	1045.5005542577
4	146893	27.41	1048.9538857218
4	147450	27.51	1052.4129465942
4	148007	27.61	1055.8748795437
4	148564	27.71	1059.3367543759
4	149121	27.81	1062.7959037676
4	149678	27.91	1066.2501225733
4	150243	28.01	1069.6976018056
4	150800	28.11	1073.1368574649
4	151357	28.21	1076.5666721546
4	151914	28.31	1079.9860471853
4	152471	28.41	1083.3941632841
4	153028	28.51	1086.7903483617
4	153585	28.61	1090.1740510709
4	154142	28.71	1093.5448191149
4	154699	28.81	1096.9022814527
4	155256	28.91	1100.2461337016
4	155821	29.01	1103.5761261617
4	156378	29.11	1106.8920539921
4	156935	29.21	1110.193749152
4	157492	29.31	1113.4810737893
4	158049	29.41	1116.7539157574
4	158606	29.51	1120.0123631745
4	159163	29.61	1123.2570917504
4	159720	29.71	1126.4893961069
4	160277	29.81	1129.7111009749
4	160834	29.91	1132.924468232
4	161399	30.01	1136.1321037343
4	161956	30.11	1139.3368647026
4	162513	30.21	1142.5416814512
4	163070	30.31	1145.7492217014
4	163627	30.41	1148.9616909471
4	164184	30.51	1152.1808984613
4	164741	30.61	1155.4083284781
4	165298	30.71	1158.6451985864
4	165855	30.81	1161.8925076333
4	166412	30.91	1165.1510750213
4	166977	31.01	1168.4215729456
4	167534	31.11	1171.7045528407
4	168091	31.21	1175.0004670747
4	168648	31.31	1178.3096867473
4	169205	31.41	1181.6325162892
4	169762	31.51	1184.9692054398
4	170319	31.61	1188.3199590724
4	170876	31.71	1191.6849452543
4	171433	31.81	1195.0643018593
4	171990	31.91	1198.4581410513
4	172555	32.01	1201.8663746341
4	173112	32.11	1205.2883266808
4	173669	32.21	1208.7227023874
4	174226	32.31	1212.1676768832
4	174783	32.41	1215.6209881883
4	175340	32.51	1219.0800303774
4	175897	32.61	1222.5419461887
4	176454	32.71	1226.0038053525
4	177011	32.81	1229.4629402951
4	177568	32.91	1232.9171456521
4	178133	33.01	1236.3646122563
4	178690	33.11	1239.8038559606
4	179247	33.21	1243.2336592475
4	179804	33.31	1246.6530233285
4	180361	33.41	1250.0611288492
4	180918	33.51	1253.4573036536
4	181475	33.61	1256.8409963397
4	182032	33.71	1260.2117545657
4	182589	33.81	1263.5692072539
4	183146	33.91	1266.9130499913
4	183711	34.01	1270.2430330531
4	184268	34.11	1273.5589515782
4	184825	34.21	1276.860637509
4	185382	34.31	1280.1479529797
4	185939	34.41	1283.4207858329
4	186496	34.51	1286.6792242359
4	187053	34.61	1289.923944035
4	187610	34.71	1293.1562399665
4	188167	34.81	1296.3779368493
4	188724	34.91	1299.5912966254
4	189289	35.01	1302.7989251942
4	189846	35.11	1306.0036798025
4	190403	35.21	1309.2084907365
4	190960	35.31	1312.4160256246
4	191517	35.41	1315.6284898794
4	192074	35.51	1318.8476927072
4	192631	35.61	1322.0751182875
4	193188	35.71	1325.3119841643
4	193745	35.81	1328.5592891477
4	194302	35.91	1331.8178526101
4	194867	36.01	1335.088346722
4	195424	36.11	1338.3713228975
4	195981	36.21	1341.6672334881
4	196538	36.31	1344.9764495796
4	197095	36.41	1348.2992755918
4	197652	36.51	1351.6359612547
4	198209	36.61	1354.986711434
4	198766	36.71	1358.3516941909
4	199323	36.81	1361.7310473942
4	199880	36.91	1365.1248832037
4	200445	37.01	1368.5331134412
4	201002	37.11	1371.9550622309
3	232	1.11	33.333332070582
3	788	1.21	33.333332100049
3	1344	1.31	33.333332146342
3	1900	1.41	33.333332205608
3	2456	1.51	33.333332274454
3	3012	1.61	33.333332349923
3	3568	1.71	33.333332429473
3	4124	1.81	33.333332510943
3	4680	1.91	33.333332592527
3	5244	2.01	33.333332672741
3	5800	2.11	33.333332750393
3	6356	2.21	33.33333282455
3	6912	2.31	33.33333289451
3	7468	2.41	33.333332959772
3	8024	2.51	33.33333302001
3	8580	2.61	33.333333075046
3	9136	2.71	33.333333124827
3	9692	2.81	33.333333169405
3	10248	2.91	33.333333208914
3	10812	3.01	33.333333243557
3	11368	3.11	33.333333273586
3	11924	3.21	33.333333299293
3	12480	3.31	33.333333320991
3	13036	3.41	33.333333339013
3	13592	3.51	33.333333353695
3	14148	3.61	33.333333365375
3	14704	3.71	33.333333374381
3	15260	3.81	33.333333381033
3	15816	3.91	33.333333385635
3	16380	4.01	33.333333388471
3	16936	4.11	33.33333338981
3	17492	4.21	33.333333389894
3	18048	4.31	33.33333338895
3	18604	4.41	33.333333387177
3	19160	4.51	33.333333384757
3	19716	4.61	33.333333381849
3	20272	4.71	33.333333378594
3	20828	4.81	33.333333375112
3	21384	4.91	33.333333371506
3	21949	5.01	33.333333367863
3	22506	5.11	33.333401628544
3	23063	5.21	33.337615197889
3	23620	5.31	33.351331457648
3	24177	5.41	33.378611875711
3	24734	5.51	33.422277525915
3	25291	5.61	33.483619363034
3	25848	5.71	33.560883289289
3	26405	5.81	33.651214374853
3	26962	5.91	33.75226508234
3	27527	6.01	33.862109613447
3	28084	6.11	33.97916814281
3	28641	6.21	34.102144663378
3	29198	6.31	34.229975997969
3	29755	6.41	34.36178997099
3	30312	6.51	34.49686951103
3	30869	6.61	34.63394454499
3	31426	6.71	34.768907460539
3	31983	6.81	34.896940693623
3	32540	6.91	35.013537294543
3	33105	7.01	35.114580456764
3	33662	7.11	35.196411611993
3	34219	7.21	35.255886909516
3	34776	7.31	35.290421999417
3	35333	7.41	35.298048086563
3	35890	7.51	35.278759124112
3	36447	7.61	35.23598770154
3	37004	7.71	35.17395248273
3	37561	7.81	35.096114241429
3	38118	7.91	35.005312017494
3	38683	8.01	34.903874812445
3	39240	8.11	34.79371321872
3	39797	8.21	34.676394587578
3	40354	8.31	34.553204692958
3	40911	8.41	34.425198317326
3	41468	8.51	34.293240749685
3	42025	8.61	34.158041828395
3	42582	8.71	34.020183868152
3	43139	8.81	33.880144569824
3	43696	8.91	33.738315814505
3	44261	9.01	33.595019081188
3	44818	9.11	33.450518094614
3	45375	9.21	33.30502920093
3	45932	9.31	33.158729879327
3	46489	9.41	33.011765724558
3	47046	9.51	32.864353863035
3	47603	9.61	32.721012496936
3	48160	9.71	32.588643994693
3	48717	9.81	32.473185082585
3	49274	9.91	32.37952165218
3	49839	10.01	32.31149760861
3	50396	10.11	32.271937243073
3	50953	10.21	32.262628456892
3	51510	10.31	32.281431757463
3	52067	10.41	32.323804768138
3	52624	10.51	32.385513150424
3	53181	10.61	32.463083271939
3	53738	10.71	32.553665544264
3	54295	10.81	32.654922312383
3	54852	10.91	32.764935884979
3	55417	11.01	32.88213308724
3	55974	11.11	33.005223367884
3	56531	11.21	33.13314802536
3	57088	11.31	33.265038555652
3	57645	11.41	33.400182482965
3	58202	11.51	33.537995328993
3	58759	11.61	33.677997617952
3	59316	11.71	33.819796012697
3	59873	11.81	33.96306783977
3	60430	11.91	34.107141747152
3	60995	12.01	34.246982852793
3	61552	12.11	34.376202942323
3	62109	12.21	34.489264817717
3	62666	12.31	34.581509590607
3	63223	12.41	34.649169726167
3	63780	12.51	34.689368787218
3	64337	12.61	34.7001510107
3	64894	12.71	34.682882928545
3	65451	12.81	34.641769331689
3	66008	12.91	34.581094107388
3	66573	13.01	34.504371535269
3	67130	13.11	34.414484548651
3	67687	13.21	34.313798156979
3	68244	13.31	34.204252491731
3	68801	13.41	34.087439136468
3	69358	13.51	33.964663744057
3	69915	13.61	33.836997404607
3	70472	13.71	33.705318785069
3	71029	13.81	33.570348698382
3	71586	13.91	33.432678462216
3	72151	14.01	33.292793163015
3	72708	14.11	33.151090740619
3	73265	14.21	33.0078976443
3	73822	14.31	32.863481676162
3	74379	14.41	32.718101580034
3	74936	14.51	32.574886427257
3	75493	14.61	32.440114751869
3	76050	14.71	32.319814522883
3	76607	14.81	32.219077485442
3	77164	14.91	32.142048757657
3	77729	15.01	32.091930244201
3	78286	15.11	32.070975264143
3	78843	15.21	32.079224413257
3	79400	15.31	32.112939343728
3	79957	15.41	32.167545084638
3	80514	15.51	32.239288566376
3	81071	15.61	32.325090964666
3	81628	15.71	32.422426571247
3	82185	15.81	32.529223425642
3	82742	15.91	32.643781798595
3	83307	16.01	32.764707320103
3	83864	16.11	32.890856121102
3	84421	16.21	33.021289830551
3	84978	16.31	33.155238657363
3	85535	16.41	33.292071104728
3	86092	16.51	33.43126912531
3	86649	16.61	33.572407739859
3	87206	16.71	33.715138317369
3	87763	16.81	33.859174858989
3	88320	16.91	34.00423217336
3	88885	17.01	34.146527003479
3	89442	17.11	34.279561763556
3	89999	17.21	34.397486339902
3	90556	17.31	34.49536634699
3	91113	17.41	34.569194390325
3	91670	17.51	34.615887710296
3	92227	17.61	34.633302198405
3	92784	17.71	34.621906345921
3	93341	17.81	34.585610022692
3	93898	17.91	34.528886640621
3	94463	18.01	34.455405955556
3	95020	18.11	34.368178445471
3	95577	18.21	34.269673750852
3	96134	18.31	34.161917837073
3	96691	18.41	34.046572701384
3	97248	18.51	33.925001760404
3	97805	18.61	33.798323490638
3	98362	18.71	33.667455432386
3	98919	18.81	33.533150288272
3	99476	18.91	33.396025536615
3	100041	19.01	33.256587724703
3	100598	19.11	33.115252397745
3	101155	19.21	32.972360447543
3	101712	19.31	32.828191524111
3	102269	19.41	32.683020974216
3	102826	19.51	32.540389451904
3	103383	19.61	32.406715289624
3	103940	19.71	32.287914451662
3	104497	19.81	32.188979592244
3	105054	19.91	32.113969109672
3	105619	20.01	32.066009892824
3	106176	20.11	32.047286503659
3	106733	20.21	32.057518927939
3	107290	20.31	32.092860834819
3	107847	20.41	32.148801263061
3	108404	20.51	32.221639653283
3	108961	20.61	32.308340257886
3	109518	20.71	32.406412706488
3	110075	20.81	32.513814027983
3	110632	20.91	32.628868274494
3	111197	21.01	32.750200585031
3	111754	21.11	32.87668309472
3	112311	21.21	33.007390561525
3	112868	21.31	33.141563964718
3	113425	21.41	33.278580642935
3	113982	21.51	33.417929796984
3	114539	21.61	33.559192393615
3	115096	21.71	33.702024679617
3	115653	21.81	33.846144657624
3	116210	21.91	33.99127355855
3	116775	22.01	34.133781378533
3	117332	22.11	34.267219468202
3	117889	22.21	34.385696284949
3	118446	22.31	34.484240786262
3	119003	22.41	34.558813492781
3	119560	22.51	34.606303886233
3	120117	22.61	34.624542412731
3	120674	22.71	34.61387898274
3	121231	22.81	34.578183501056
3	121788	22.91	34.521953018326
3	122353	23.01	34.448876682398
3	122910	23.11	34.361980879439
3	123467	23.21	34.263748300197
3	124024	23.31	34.156215615805
3	124581	23.41	34.041053605964
3	125138	23.51	33.919632891962
3	125695	23.61	33.793077860643
3	126252	23.71	33.66231090084
3	126809	23.81	33.528088692668
3	127366	23.91	33.391031977369
3	127931	24.01	33.251649978969
3	128488	24.11	33.110360438529
3	129045	24.21	32.967506049221
3	129602	24.31	32.823367938803
3	130159	24.41	32.67822360761
3	130716	24.51	32.535669905051
3	131273	24.61	32.402144231196
3	131830	24.71	32.283547191314
3	132387	24.81	32.184857847866
3	132944	24.91	32.110122700925
3	133509	25.01	32.062458343834
3	134066	25.11	32.044039899942
3	134623	25.21	32.054543396576
3	135180	25.31	32.090107677201
3	135737	25.41	32.146230529366
3	136294	25.51	32.219218570743
3	136851	25.61	32.306041941417
3	137408	25.71	32.404215100957
3	137965	25.81	32.511699040498
3	138522	25.91	32.626821062583
3	139087	26.01	32.748208972697
3	139644	26.11	32.874737093404
3	140201	26.21	33.00548197713
3	140758	26.31	33.139686075231
3	141315	26.41	33.276727933964
3	141872	26.51	33.416097744805
3	142429	26.61	33.557377287201
3	142986	26.71	33.700223474632
3	143543	26.81	33.844354856653
3	144100	26.91	33.989493462117
3	144665	27.01	34.132030137959
3	145222	27.11	34.265523309485
3	145779	27.21	34.384075734601
3	146336	27.31	34.482711327072
3	146893	27.41	34.557386192231
3	147450	27.51	34.604985991209
3	148007	27.61	34.623337667502
3	148564	27.71	34.612774819361
3	149121	27.81	34.577161849829
3	149678	27.91	34.520999055801
3	150243	28.01	34.447978248185
3	150800	28.11	34.361127997782
3	151357	28.21	34.262932787503
3	151914	28.31	34.155430758675
3	152471	28.41	34.040293897074
3	153028	28.51	33.918893813388
3	153585	28.61	33.792355706113
3	154142	28.71	33.661602629922
3	154699	28.81	33.527391811146
3	155256	28.91	33.39034443912
3	155821	29.01	33.250970105458
3	156378	29.11	33.109686852772
3	156935	29.21	32.966837621612
3	157492	29.31	32.822703742673
3	158049	29.41	32.677563012382
3	158606	29.51	32.53502001788
3	159163	29.61	32.401514784645
3	159720	29.71	32.282945802856
3	160277	29.81	32.184290263234
3	160834	29.91	32.109593027321
3	161399	30.01	32.061969270629
3	161956	30.11	32.043592816673
3	162513	30.21	32.054133639286
3	163070	30.31	32.089728540214
3	163627	30.41	32.145876511694
3	164184	30.51	32.218885159657
3	164741	30.61	32.305725434909
3	165298	30.71	32.403912462091
3	165855	30.81	32.511407777928
3	166412	30.91	32.626539132538
3	166977	31.01	32.747934698574
3	167534	31.11	32.874469099802
3	168091	31.21	33.005219135744
3	168648	31.31	33.139427460457
3	169205	31.41	33.276472786482
3	169762	31.51	33.415845441712
3	170319	31.61	33.557127317498
3	170876	31.71	33.69997541912
3	171433	31.81	33.844108371445
3	171990	31.91	33.989248313206
3	172555	32.01	34.131788962834
3	173112	32.11	34.265289719931
3	173669	32.21	34.383852557486
3	174226	32.31	34.482500694658
3	174783	32.41	34.557189628713
3	175340	32.51	34.604804494622
3	175897	32.61	34.623171753508
3	176454	32.71	34.612622757152
3	177011	32.81	34.577021150908
3	177568	32.91	34.520867678733
3	178133	33.01	34.447854518284
3	178690	33.11	34.361010541222
3	179247	33.21	34.262820477267
3	179804	33.31	34.155322670218
3	180361	33.41	34.040189271946
3	180918	33.51	33.918792029396
3	181475	33.61	33.792256252841
3	182032	33.71	33.661505088653
3	182589	33.81	33.527295838386
3	183146	33.91	33.390249753082
3	183711	34.01	33.250876474981
3	184268	34.11	33.109594088223
3	184825	34.21	32.966745567426
3	185382	34.31	32.822612271231
3	185939	34.41	32.677472036844
3	186496	34.51	32.534930517026
3	187053	34.61	32.40142809882
3	187610	34.71	32.28286298112
3	188167	34.81	32.184212096876
3	188724	34.91	32.109520081976
3	189289	35.01	32.061901916669
3	189846	35.11	32.043531245463
3	190403	35.21	32.054077208517
3	190960	35.31	32.089676326398
3	191517	35.41	32.145827757247
3	192074	35.51	32.218839243098
3	192631	35.61	32.305681846407
3	193188	35.71	32.403870783406
3	193745	35.81	32.511367665959
3	194302	35.91	32.626500305822
3	194867	36.01	32.747896926212
3	195424	36.11	32.874432192378
3	195981	36.21	33.005182937871
3	196538	36.31	33.139391844662
3	197095	36.41	33.276437648195
3	197652	36.51	33.415810695147
3	198209	36.61	33.557092892281
3	198766	36.71	33.699941257521
3	199323	36.81	33.844074426105
3	199880	36.91	33.989214551897
3	200445	37.01	34.131755748785
3	201002	37.11	34.265257550548
1	232	1.11	0
1	788	1.21	0
1	1344	1.31	0
1	1900	1.41	0
1	2456	1.51	0
1	3012	1.61	0
1	3568	1.71	0
1	4124	1.81	0
1	4680	1.91	0
1	5244	2.01	0
1	5800	2.11	0
1	6356	2.21	0
1	6912	2.31	0
1	7468	2.41	0
1	8024	2.51	0
1	8580	2.61	0
1	9136	2.71	0
1	9692	2.81	0
1	10248	2.91	0
1	10812	3.01	0
1	11368	3.11	0
1	11924	3.21	0
1	12480	3.31	0
1	13036	3.41	0
1	13592	3.51	0
1	14148	3.61	0
1	14704	3.71	0
1	15260	3.81	0
1	15816	3.91	0
1	16380	4.01	0
1	16936	4.11	0
1	17492	4.21	0
1	18048	4.31	0
1	18604	4.41	0
1	19160	4.51	0
1	19716	4.61	0
1	20272	4.71	0
1	20828	4.81	0
1	21384	4.91	0
1	21949	5.01	0
1	22506	5.11	0
1	23063	5.21	0
1	23620	5.31	0
1	24177	5.41	0
1	24734	5.51	0
1	25291	5.61	0
1	25848	5.71	0
1	26405	5.81	0
1	26962	5.91	0
1	27527	6.01	0
1	28084	6.11	0
1	28641	6.21	0
1	29198	6.31	0
1	29755	6.41	0
1	30312	6.51	0
1	30869	6.61	0
1	31426	6.71	0
1	31983	6.81	0
1	32540	6.91	0
1	33105	7.01	0
1	33662	7.11	0
1	34219	7.21	0
1	34776	7.31	0
1	35333	7.41	0
1	35890	7.51	0
1	36447	7.61	0
1	37004	7.71	0
1	37561	7.81	0
1	38118	7.91	0
1	38683	8.01	0
1	39240	8.11	0
1	39797	8.21	0
1	40354	8.31	0
1	40911	8.41	0
1	41468	8.51	0
1	42025	8.61	0
1	42582	8.71	0
1	43139	8.81	0
1	43696	8.91	0
1	44261	9.01	0
1	44818	9.11	0
1	45375	9.21	0
1	45932	9.31	0
1	46489	9.41	0
1	47046	9.51	0
1	47603	9.61	0
1	48160	9.71	0
1	48717	9.81	0
1	49274	9.91	0
1	49839	10.01	0
1	50396	10.11	0
1	50953	10.21	0
1	51510	10.31	0
1	52067	10.41	0
1	52624	10.51	0
1	53181	10.61	0
1	53738	10.71	0
1	54295	10.81	0
1	54852	10.91	0
1	55417	11.01	0
1	55974	11.11	0
1	56531	11.21	0
1	57088	11.31	0
1	57645	11.41	0
1	58202	11.51	0
1	58759	11.61	0
1	59316	11.71	0
1	59873	11.81	0
1	60430	11.91	0
1	60995	12.01	0
1	61552	12.11	0
1	62109	12.21	0
1	62666	12.31	0
1	63223	12.41	0
1	63780	12.51	0
1	64337	12.61	0
1	64894	12.71	0
1	65451	12.81	0
1	66008	12.91	0
1	66573	13.01	0
1	67130	13.11	0
1	67687	13.21	0
1	68244	13.31	0
1	68801	13.41	0
1	69358	13.51	0
1	69915	13.61	0
1	70472	13.71	0
1	71029	13.81	0
1	71586	13.91	0
1	72151	14.01	0
1	72708	14.11	0
1	73265	14.21	0
1	73822	14.31	0
1	74379	14.41	0
1	74936	14.51	0
1	75493	14.61	0
1	76050	14.71	0
1	76607	14.81	0
1	77164	14.91	0
1	77729	15.01	0
1	78286	15.11	0
1	78843	15.21	0
1	79400	15.31	0
1	79957	15.41	0
1	80514	15.51	0
1	81071	15.61	0
1	81628	15.71	0
1	82185	15.81	0
1	82742	15.91	0
1	83307	16.01	0
1	83864	16.11	0
1	84421	16.21	0
1	84978	16.31	0
1	85535	16.41	0
1	86092	16.51	0
1	86649	16.61	0
1	87206	16.71	0
1	87763	16.81	0
1	88320	16.91	0
1	88885	17.01	0
1	89442	17.11	0
1	89999	17.21	0
1	90556	17.31	0
1	91113	17.41	0
1	91670	17.51	0
1	92227	17.61	0
1	92784	17.71	0
1	93341	17.81	0
1	93898	17.91	0
1	94463	18.01	0
1	95020	18.11	0
1	95577	18.21	0
1	96134	18.31	0
1	96691	18.41	0
1	97248	18.51	0
1	97805	18.61	0
1	98362	18.71	0
1	98919	18.81	0
1	99476	18.91	0
1	100041	19.01	0
1	100598	19.11	0
1	101155	19.21	0
1	101712	19.31	0
1	102269	19.41	0
1	102826	19.51	0
1	103383	19.61	0
1	103940	19.71	0
1	104497	19.81	0
1	105054	19.91	0
1	105619	20.01	0
1	106176	20.11	0
1	106733	20.21	0
1	107290	20.31	0
1	107847	20.41	0
1	108404	20.51	0
1	108961	20.61	0
1	109518	20.71	0
1	110075	20.81	0
1	110632	20.91	0
1	111197	21.01	0
1	111754	21.11	0
1	112311	21.21	0
1	112868	21.31	0
1	113425	21.41	0
1	113982	21.51	0
1	114539	21.61	0
1	115096	21.71	0
1	115653	21.81	0
1	116210	21.91	0
1	116775	22.01	0
1	117332	22.11	0
1	117889	22.21	0
1	118446	22.31	0
1	119003	22.41	0
1	119560	22.51	0
1	120117	22.61	0
1	120674	22.71	0
1	121231	22.81	0
1	121788	22.91	0
1	122353	23.01	0
1	122910	23.11	0
1	123467	23.21	0
1	124024	23.31	0
1	124581	23.41	0
1	125138	23.51	0
1	125695	23.61	0
1	126252	23.71	0
1	126809	23.81	0
1	127366	23.91	0
1	127931	24.01	0
1	128488	24.11	0
1	129045	24.21	0
1	129602	24.31	0
1	130159	24.41	0
1	130716	24.51	0
1	131273	24.61	0
1	131830	24.71	0
1	132387	24.81	0
1	132944	24.91	0
1	133509	25.01	0
1	134066	25.11	0
1	134623	25.21	0
1	135180	25.31	0
1	135737	25.41	0
1	136294	25.51	0
1	136851	25.61	0
1	137408	25.71	0
1	137965	25.81	0
1	138522	25.91	0
1	139087	26.01	0
1	139644	26.11	0
1	140201	26.21	0
1	140758	26.31	0
1	141315	26.41	0
1	141872	26.51	0
1	142429	26.61	0
1	142986	26.71	0
1	143543	26.81	0
1	144100	26.91	0
1	144665	27.01	0
1	145222	27.11	0
1	145779	27.21	0
1	146336	27.31	0
1	146893	27.41	0
1	147450	27.51	0
1	148007	27.61	0
1	148564	27.71	0
1	149121	27.81	0
1	149678	27.91	0
1	150243	28.01	0
1	150800	28.11	0
1	151357	28.21	0
1	151914	28.31	0
1	152471	28.41	0
1	153028	28.51	0
1	153585	28.61	0
1	154142	28.71	0
1	154699	28.81	0
1	155256	28.91	0
1	155821	29.01	0
1	156378	29.11	0
1	156935	29.21	0
1	157492	29.31	0
1	158049	29.41	0
1	158606	29.51	0
1	159163	29.61	0
1	159720	29.71	0
1	160277	29.81	0
1	160834	29.91	0
1	161399	30.01	0
1	161956	30.11	0
1	162513	30.21	0
1	163070	30.31	0
1	163627	30.41	0
1	164184	30.51	0
1	164741	30.61	0
1	165298	30.71	0
1	165855	30.81	0
1	166412	30.91	0
1	166977	31.01	0
1	167534	31.11	0
1	168091	31.21	0
1	168648	31.31	0
1	169205	31.41	0
1	169762	31.51	0
1	170319	31.61	0
1	170876	31.71	0
1	171433	31.81	0
1	171990	31.91	0
1	172555	32.01	0
1	173112	32.11	0
1	173669	32.21	0
1	174226	32.31	0
1	174783	32.41	0
1	175340	32.51	0
1	175897	32.61	0
1	176454	32.71	0
1	177011	32.81	0
1	177568	32.91	0
1	178133	33.01	0
1	178690	33.11	0
1	179247	33.21	0
1	179804	33.31	0
1	180361	33.41	0
1	180918	33.51	0
1	181475	33.61	0
1	182032	33.71	0
1	182589	33.81	0
1	183146	33.91	0
1	183711	34.01	0
1	184268	34.11	0
1	184825	34.21	0
1	185382	34.31	0
1	185939	34.41	0
1	186496	34.51	0
1	187053	34.61	0
1	187610	34.71	0
1	188167	34.81	0
1	188724	34.91	0
1	189289	35.01	0
1	189846	35.11	0
1	190403	35.21	0
1	190960	35.31	0
1	191517	35.41	0
1	192074	35.51	0
1	192631	35.61	0
1	193188	35.71	0
1	193745	35.81	0
1	194302	35.91	0
1	194867	36.01	0
1	195424	36.11	0
1	195981	36.21	0
1	196538	36.31	0
1	197095	36.41	0
1	197652	36.51	0
1	198209	36.61	0
1	198766	36.71	0
1	199323	36.81	0
1	199880	36.91	0
1	200445	37.01	0
1	201002	37.11	0
0	232	1.11	-1
0	788	1.21	-1
0	1344	1.31	-1
0	1900	1.41	-1
0	2456	1.51	-1
0	3012	1.61	-1
0	3568	1.71	-1
0	4124	1.81	-1
0	4680	1.91	-1
0	5244	2.01	-1
0	5800	2.11	-1
0	6356	2.21	-1
0	6912	2.31	-1
0	7468	2.41	-1
0	8024	2.51	-1
0	8580	2.61	-1
0	9136	2.71	-1
0	9692	2.81	-1
0	10248	2.91	-1
0	10812	3.01	-1
0	11368	3.11	-1
0	11924	3.21	-1
0	12480	3.31	-1
0	13036	3.41	-1
0	13592	3.51	-1
0	14148	3.61	-1
0	14704	3.71	-1
0	15260	3.81	-1
0	15816	3.91	-1
0	16380	4.01	-1
0	16936	4.11	-1
0	17492	4.21	-1
0	18048	4.31	-1
0	18604	4.41	-1
0	19160	4.51	-1
0	19716	4.61	-1
0	20272	4.71	-1
0	20828	4.81	-1
0	21384	4.91	-1
0	21949	5.01	-1
0	22506	5.11	-1
0	23063	5.21	-1
0	23620	5.31	-1
0	24177	5.41	-1
0	24734	5.51	-1
0	25291	5.61	-1
0	25848	5.71	-1
0	26405	5.81	-1
0	26962	5.91	-1
0	27527	6.01	-1
0	28084	6.11	-1
0	28641	6.21	-1
0	29198	6.31	-1
0	29755	6.41	-1
0	30312	6.51	-1
0	30869	6.61	-1
0	31426	6.71	-1
0	31983	6.81	-1
0	32540	6.91	-1
0	33105	7.01	-1
0	33662	7.11	-1
0	34219	7.21	-1
0	34776	7.31	-1
0	35333	7.41	-1
0	35890	7.51	-1
0	36447	7.61	-1
0	37004	7.71	-1
0	37561	7.81	-1
0	38118	7.91	-1
0	38683	8.01	-1
0	39240	8.11	-1
0	39797	8.21	-1
0	40354	8.31	-1
0	40911	8.41	-1
0	41468	8.51	-1
0	42025	8.61	-1
0	42582	8.71	-1
0	43139	8.81	-1
0	43696	8.91	-1
0	44261	9.01	-1
0	44818	9.11	-1
0	45375	9.21	-1
0	45932	9.31	-1
0	46489	9.41	-1
0	47046	9.51	-1
0	47603	9.61	-1
0	48160	9.71	-1
0	48717	9.81	-1
0	49274	9.91	-1
0	49839	10.01	-1
0	50396	10.11	-1
0	50953	10.21	-1
0	51510	10.31	-1
0	52067	10.41	-1
0	52624	10.51	-1
0	53181	10.61	-1
0	53738	10.71	-1
0	54295	10.81	-1
0	54852	10.91	-1
0	55417	11.01	-1
0	55974	11.11	-1
0	56531	11.21	-1
0	57088	11.31	-1
0	57645	11.41	-1
0	58202	11.51	-1
0	58759	11.61	-1
0	59316	11.71	-1
0	59873	11.81	-1
0	60430	11.91	-1
0	60995	12.01	-1
0	61552	12.11	-1
0	62109	12.21	-1
0	62666	12.31	-1
0	63223	12.41	-1
0	63780	12.51	-1
0	64337	12.61	-1
0	64894	12.71	-1
0	65451	12.81	-1
0	66008	12.91	-1
0	66573	13.01	-1
0	67130	13.11	-1
0	67687	13.21	-1
0	68244	13.31	-1
0	68801	13.41	-1
0	69358	13.51	-1
0	69915	13.61	-1
0	70472	13.71	-1
0	71029	13.81	-1
0	71586	13.91	-1
0	72151	14.01	-1
0	72708	14.11	-1
0	73265	14.21	-1
0	73822	14.31	-1
0	74379	14.41	-1
0	74936	14.51	-1
0	75493	14.61	-1
0	76050	14.71	-1
0	76607	14.81	-1
0	77164	14.91	-1
0	77729	15.01	-1
0	78286	15.11	-1
0	78843	15.21	-1
0	79400	15.31	-1
0	79957	15.41	-1
0	80514	15.51	-1
0	81071	15.61	-1
0	81628	15.71	-1
0	82185	15.81	-1
0	82742	15.91	-1
0	83307	16.01	-1
0	83864	16.11	-1
0	84421	16.21	-1
0	84978	16.31	-1
0	85535	16.41	-1
0	86092	16.51	-1
0	86649	16.61	-1
0	87206	16.71	-1
0	87763	16.81	-1
0	88320	16.91	-1
0	88885	17.01	-1
0	89442	17.11	-1
0	89999	17.21	-1
0	90556	17.31	-1
0	91113	17.41	-1
0	91670	17.51	-1
0	92227	17.61	-1
0	92784	17.71	-1
0	93341	17.81	-1
0	93898	17.91	-1
0	94463	18.01	-1
0	95020	18.11	-1
0	95577	18.21	-1
0	96134	18.31	-1
0	96691	18.41	-1
0	97248	18.51	-1
0	97805	18.61	-1
0	98362	18.71	-1
0	98919	18.81	-1
0	99476	18.91	-1
0	100041	19.01	-1
0	100598	19.11	-1
0	101155	19.21	-1
0	101712	19.31	-1
0	102269	19.41	-1
0	102826	19.51	-1
0	103383	19.61	-1
0	103940	19.71	-1
0	104497	19.81	-1
0	105054	19.91	-1
0	105619	20.01	-1
0	106176	20.11	-1
0	106733	20.21	-1
0	107290	20.31	-1
0	107847	20.41	-1
0	108404	20.51	-1
0	108961	20.61	-1
0	109518	20.71	-1
0	110075	20.81	-1
0	110632	20.91	-1
0	111197	21.01	-1
0	111754	21.11	-1
0	112311	21.21	-1
0	112868	21.31	-1
0	113425	21.41	-1
0	113982	21.51	-1
0	114539	21.61	-1
0	115096	21.71	-1
0	115653	21.81	-1
0	116210	21.91	-1
0	116775	22.01	-1
0	117332	22.11	-1
0	117889	22.21	-1
0	118446	22.31	-1
0	119003	22.41	-1
0	119560	22.51	-1
0	120117	22.61	-1
0	120674	22.71	-1
0	121231	22.81	-1
0	121788	22.91	-1
0	122353	23.01	-1
0	122910	23.11	-1
0	123467	23.21	-1
0	124024	23.31	-1
0	124581	23.41	-1
0	125138	23.51	-1
0	125695	23.61	-1
0	126252	23.71	-1
0	126809	23.81	-1
0	127366	23.91	-1
0	127931	24.01	-1
0	128488	24.11	-1
0	129045	24.21	-1
0	129602	24.31	-1
0	130159	24.41	-1
0	130716	24.51	-1
0	131273	24.61	-1
0	131830	24.71	-1
0	132387	24.81	-1
0	132944	24.91	-1
0	133509	25.01	-1
0	134066	25.11	-1
0	134623	25.21	-1
0	135180	25.31	-1
0	135737	25.41	-1
0	136294	25.51	-1
0	136851	25.61	-1
0	137408	25.71	-1
0	137965	25.81	-1
0	138522	25.91	-1
0	139087	26.01	-1
0	139644	26.11	-1
0	140201	26.21	-1
0	140758	26.31	-1
0	141315	26.41	-1
0	141872	26.51	-1
0	142429	26.61	-1
0	142986	26.71	-1
0	143543	26.81	-1
0	144100	26.91	-1
0	144665	27.01	-1
0	145222	27.11	-1
0	145779	27.21	-1
0	146336	27.31	-1
0	146893	27.41	-1
0	147450	27.51	-1
0	148007	27.61	-1
0	148564	27.71	-1
0	149121	27.81	-1
0	149678	27.91	-1
0	150243	28.01	-1
0	150800	28.11	-1
0	151357	28.21	-1
0	151914	28.31	-1
0	152471	28.41	-1
0	153028	28.51	-1
0	153585	28.61	-1
0	154142	28.71	-1
0	154699	28.81	-1
0	155256	28.91	-1
0	155821	29.01	-1
0	156378	29.11	-1
0	156935	29.21	-1
0	157492	29.31	-1
0	158049	29.41	-1
0	158606	29.51	-1
0	159163	29.61	-1
0	159720	29.71	-1
0	160277	29.81	-1
0	160834	29.91	-1
0	161399	30.01	-1
0	161956	30.11	-1
0	162513	30.21	-1
0	163070	30.31	-1
0	163627	30.41	-1
0	164184	30.51	-1
0	164741	30.61	-1
0	165298	30.71	-1
0	165855	30.81	-1
0	166412	30.91	-1
0	166977	31.01	-1
0	167534	31.11	-1
0	168091	31.21	-1
0	168648	31.31	-1
0	169205	31.41	-1
0	169762	31.51	-1
0	170319	31.61	-1
0	170876	31.71	-1
0	171433	31.81	-1
0	171990	31.91	-1
0	172555	32.01	-1
0	173112	32.11	-1
0	173669	32.21	-1
0	174226	32.31	-1
0	174783	32.41	-1
0	175340	32.51	-1
0	175897	32.61	-1
0	176454	32.71	-1
0	177011	32.81	-1
0	177568	32.91	-1
0	178133	33.01	-1
0	178690	33.11	-1
0	179247	33.21	-1
0	179804	33.31	-1
0	180361	33.41	-1
0	180918	33.51	-1
0	181475	33.61	-1
0	182032	33.71	-1
0	182589	33.81	-1
0	183146	33.91	-1
0	183711	34.01	-1
0	184268	34.11	-1
0	184825	34.21	-1
0	185382	34.31	-1
0	185939	34.41	-1
0	186496	34.51	-1
0	187053	34.61	-1
0	187610	34.71	-1
0	188167	34.81	-1
0	188724	34.91	-1
0	189289	35.01	-1
0	189846	35.11	-1
0	190403	35.21	-1
0	190960	35.31	-1
0	191517	35.41	-1
0	192074	35.51	-1
0	192631	35.61	-1
0	193188	35.71	-1
0	193745	35.81	-1
0	194302	35.91	-1
0	194867	36.01	-1
0	195424	36.11	-1
0	195981	36.21	-1
0	196538	36.31	-1
0	197095	36.41	-1
0	197652	36.51	-1
0	198209	36.61	-1
0	198766	36.71	-1
0	199323	36.81	-1
0	199880	36.91	-1
0	200445	37.01	-1
0	201002	37.11	-1
2	232	1.11	0
2	788	1.21	0
2	1344	1.31	0
2	1900	1.41	0
2	2456	1.51	0
2	3012	1.61	0
2	3568	1.71	0
2	4124	1.81	0
2	4680	1.91	0
2	5244	2.01	0
2	5800	2.11	0
2	6356	2.21	0
2	6912	2.31	0
2	7468	2.41	0
2	8024	2.51	0
2	8580	2.61	0
2	9136	2.71	0
2	9692	2.81	0
2	10248	2.91	0
2	10812	3.01	0
2	11368	3.11	0
2	11924	3.21	0
2	12480	3.31	0
2	13036	3.41	0
2	13592	3.51	0
2	14148	3.61	0
2	14704	3.71	0
2	15260	3.81	0
2	15816	3.91	0
2	16380	4.01	0
2	16936	4.11	0
2	17492	4.21	0
2	18048	4.31	0
2	18604	4.41	0
2	19160	4.51	0
2	19716	4.61	0
2	20272	4.71	0
2	20828	4.81	0
2	21384	4.91	0
2	21949	5.01	0
2	22506	5.11	0
2	23063	5.21	0
2	23620	5.31	0
2	24177	5.41	0
2	24734	5.51	0
2	25291	5.61	0
2	25848	5.71	0
2	26405	5.81	0
2	26962	5.91	0
2	27527	6.01	0
2	28084	6.11	0
2	28641	6.21	0
2	29198	6.31	0
2	29755	6.41	0
2	30312	6.51	0
2	30869	6.61	0
2	31426	6.71	0
2	31983	6.81	0
2	32540	6.91	0
2	33105	7.01	0
2	33662	7.11	0
2	34219	7.21	0
2	34776	7.31	0
2	35333	7.41	0
2	35890	7.51	0
2	36447	7.61	0
2	37004	7.71	0
2	37561	7.81	0
2	38118	7.91	0
2	38683	8.01	0
2	39240	8.11	0
2	39797	8.21	0
2	40354	8.31	0
2	40911	8.41	0
2	41468	8.51	0
2	42025	8.61	0
2	42582	8.71	0
2	43139	8.81	0
2	43696	8.91	0
2	44261	9.01	0
2	44818	9.11	0
2	45375	9.21	0
2	45932	9.31	0
2	46489	9.41	0
2	47046	9.51	0
2	47603	9.61	0
2	48160	9.71	0
2	48717	9.81	0
2	49274	9.91	0
2	49839	10.01	0
2	50396	10.11	0
2	50953	10.21	0
2	51510	10.31	0
2	52067	10.41	0
2	52624	10.51	0
2	53181	10.61	0
2	53738	10.71	0
2	54295	10.81	0
2	54852	10.91	0
2	55417	11.01	0
2	55974	11.11	0
2	56531	11.21	0
2	57088	11.31	0
2	57645	11.41	0
2	58202	11.51	0
2	58759	11.61	0
2	59316	11.71	0
2	59873	11.81	0
2	60430	11.91	0
2	60995	12.01	0
2	61552	12.11	0
2	62109	12.21	0
2	62666	12.31	0
2	63223	12.41	0
2	63780	12.51	0
2	64337	12.61	0
2	64894	12.71	0
2	65451	12.81	0
2	66008	12.91	0
2	66573	13.01	0
2	67130	13.11	0
2	67687	13.21	0
2	68244	13.31	0
2	68801	13.41	0
2	69358	13.51	0
2	69915	13.61	0
2	70472	13.71	0
2	71029	13.81	0
2	71586	13.91	0
2	72151	14.01	0
2	72708	14.11	0
2	73265	14.21	0
2	73822	14.31	0
2	74379	14.41	0
2	74936	14.51	0
2	75493	14.61	0
2	76050	14.71	0
2	76607	14.81	0
2	77164	14.91	0
2	77729	15.01	0
2	78286	15.11	0
2	78843	15.21	0
2	79400	15.31	0
2	79957	15.41	0
2	80514	15.51	0
2	81071	15.61	0
2	81628	15.71	0
2	82185	15.81	0
2	82742	15.91	0
2	83307	16.01	0
2	83864	16.11	0
2	84421	16.21	0
2	84978	16.31	0
2	85535	16.41	0
2	86092	16.51	0
2	86649	16.61	0
2	87206	16.71	0
2	87763	16.81	0
2	88320	16.91	0
2	88885	17.01	0
2	89442	17.11	0
2	89999	17.21	0
2	90556	17.31	0
2	91113	17.41	0
2	91670	17.51	0
2	92227	17.61	0
2	92784	17.71	0
2	93341	17.81	0
2	93898	17.91	0
2	94463	18.01	0
2	95020	18.11	0
2	95577	18.21	0
2	96134	18.31	0
2	96691	18.41	0
2	97248	18.51	0
2	97805	18.61	0
2	98362	18.71	0
2	98919	18.81	0
2	99476	18.91	0
2	100041	19.01	0
2	100598	19.11	0
2	101155	19.21	0
2	101712	19.31	0
2	102269	19.41	0
2	102826	19.51	0
2	103383	19.61	0
2	103940	19.71	0
2	104497	19.81	0
2	105054	19.91	0
2	105619	20.01	0
2	106176	20.11	0
2	106733	20.21	0
2	107290	20.31	0
2	107847	20.41	0
2	108404	20.51	0
2	108961	20.61	0
2	109518	20.71	0
2	110075	20.81	0
2	110632	20.91	0
2	111197	21.01	0
2	111754	21.11	0
2	112311	21.21	0
2	112868	21.31	0
2	113425	21.41	0
2	113982	21.51	0
2	114539	21.61	0
2	115096	21.71	0
2	115653	21.81	0
2	116210	21.91	0
2	116775	22.01	0
2	117332	22.11	0
2	117889	22.21	0
2	118446	22.31	0
2	119003	22.41	0
2	119560	22.51	0
2	120117	22.61	0
2	120674	22.71	0
2	121231	22.81	0
2	121788	22.91	0
2	122353	23.01	0
2	122910	23.11	0
2	123467	23.21	0
2	124024	23.31	0
2	124581	23.41	0
2	125138	23.51	0
2	125695	23.61	0
2	126252	23.71	0
2	126809	23.81	0
2	127366	23.91	0
2	127931	24.01	0
2	128488	24.11	0
2	129045	24.21	0
2	129602	24.31	0
2	130159	24.41	0
2	130716	24.51	0
2	131273	24.61	0
2	131830	24.71	0
2	132387	24.81	0
2	132944	24.91	0
2	133509	25.01	0
2	134066	25.11	0
2	134623	25.21	0
2	135180	25.31	0
2	135737	25.41	0
2	136294	25.51	0
2	136851	25.61	0
2	137408	25.71	0
2	137965	25.81	0
2	138522	25.91	0
2	139087	26.01	0
2	139644	26.11	0
2	140201	26.21	0
2	140758	26.31	0
2	141315	26.41	0
2	141872	26.51	0
2	142429	26.61	0
2	142986	26.71	0
2	143543	26.81	0
2	144100	26.91	0
2	144665	27.01	0
2	145222	27.11	0
2	145779	27.21	0
2	146336	27.31	0
2	146893	27.41	0
2	147450	27.51	0
2	148007	27.61	0
2	148564	27.71	0
2	149121	27.81	0
2	149678	27.91	0
2	150243	28.01	0
2	150800	28.11	0
2	151357	28.21	0
2	151914	28.31	0
2	152471	28.41	0
2	153028	28.51	0
2	153585	28.61	0
2	154142	28.71	0
2	154699	28.81	0
2	155256	28.91	0
2	155821	29.01	0
2	156378	29.11	0
2	156935	29.21	0
2	157492	29.31	0
2	158049	29.41	0
2	158606	29.51	0
2	159163	29.61	0
2	159720	29.71	0
2	160277	29.81	0
2	160834	29.91	0
2	161399	30.01	0
2	161956	30.11	0
2	162513	30.21	0
2	163070	30.31	0
2	163627	30.41	0
2	164184	30.51	0
2	164741	30.61	0
2	165298	30.71	0
2	165855	30.81	0
2	166412	30.91	0
2	166977	31.01	0
2	167534	31.11	0
2	168091	31.21	0
2	168648	31.31	0
2	169205	31.41	0
2	169762	31.51	0
2	170319	31.61	0
2	170876	31.71	0
2	171433	31.81	0
2	171990	31.91	0
2	172555	32.01	0
2	173112	32.11	0
2	173669	32.21	0
2	174226	32.31	0
2	174783	32.41	0
2	175340	32.51	0
2	175897	32.61	0
2	176454	32.71	0
2	177011	32.81	0
2	177568	32.91	0
2	178133	33.01	0
2	178690	33.11	0
2	179247	33.21	0
2	179804	33.31	0
2	180361	33.41	0
2	180918	33.51	0
2	181475	33.61	0
2	182032	33.71	0
2	182589	33.81	0
2	183146	33.91	0
2	183711	34.01	0
2	184268	34.11	0
2	184825	34.21	0
2	185382	34.31	0
2	185939	34.41	0
2	186496	34.51	0
2	187053	34.61	0
2	187610	34.71	0
2	188167	34.81	0
2	188724	34.91	0
2	189289	35.01	0
2	189846	35.11	0
2	190403	35.21	0
2	190960	35.31	0
2	191517	35.41	0
2	192074	35.51	0
2	192631	35.61	0
2	193188	35.71	0
2	193745	35.81	0
2	194302	35.91	0
2	194867	36.01	0
2	195424	36.11	0
2	195981	36.21	0
2	196538	36.31	0
2	197095	36.41	0
2	197652	36.51	0
2	198209	36.61	0
2	198766	36.71	0
2	199323	36.81	0
2	199880	36.91	0
2	200445	37.01	0
2	201002	37.11	0
10	5234	2	0
10	10802	3	0
10	16370	4	0
10	21939	5	0
10	27516	6	0
10	33094	7	0
10	38672	8	0
10	44250	9	0
10	49828	10	0
10	55406	11	0
10	60984	12	0
10	66562	13	0
10	72140	14	0
10	77718	15	0
10	83296	16	0
10	88874	17	0
10	94452	18	0
10	100030	19	0
10	105608	20	0
10	111186	21	0
10	116764	22	0
10	122342	23	0
10	127920	24	0
10	133498	25	0
10	139076	26	0
10	144654	27	0
10	150232	28	0
10	155810	29	0
10	161388	30	0
10	166966	31	0
10	172544	32	0
10	178122	33	0
10	183700	34	0
10	189278	35	0
10	194856	36	0
10	200434	37	0
9	5234	2	0.023625
9	10802	3	0.02625
9	16370	4	0.02625
9	21939	5	0.02625
9	27516	6	0.02625
9	33094	7	0.02625
9	38672	8	0.02625
9	44250	9	0.02625
9	49828	10	0.02625
9	55406	11	0.02625
9	60984	12	0.02625
9	66562	13	0.02625
9	72140	14	0.02625
9	77718	15	0.02625
9	83296	16	0.02625
9	88874	17	0.02625
9	94452	18	0.02625
9	100030	19	0.02625
9	105608	20	0.02625
9	111186	21	0.02625
9	116764	22	0.02625
9	122342	23	0.02625
9	127920	24	0.02625
9	133498	25	0.02625
9	139076	26	0.02625
9	144654	27	0.02625
9	150232	28	0.02625
9	155810	29	0.02625
9	161388	30	0.02625
9	166966	31	0.02625
9	172544	32	0.02625
9	178122	33	0.02625
9	183700	34	0.02625
9	189278	35	0.02625
9	194856	36	0.02625
9	200434	37	0.02625
8	5234	2	0
8	10802	3	0
8	16370	4	0
8	21939	5	0
8	27516	6	0
8	33094	7	0
8	38672	8	0
8	44250	9	0
8	49828	10	0
8	55406	11	0
8	60984	12	0
8	66562	13	0
8	72140	14	0
8	77718	15	0
8	83296	16	0
8	88874	17	0
8	94452	18	0
8	100030	19	0
8	105608	20	0
8	111186	21	0
8	116764	22	0
8	122342	23	0
8	127920	24	0
8	133498	25	0
8	139076	26	0
8	144654	27	0
8	150232	28	0
8	155810	29	0
8	161388	30	0
8	166966	31	0
8	172544	32	0
8	178122	33	0
8	183700	34	0
8	189278	35	0
8	194856	36	0
8	200434	37	0
51	234	1.11	0
51	790	1.21	1.1091105108108e-06
51	1346	1.31	1.0819374918469e-06
51	1902	1.41	1.0382590089364e-06
51	2458	1.51	9.8189443605179e-07
51	3014	1.61	9.1620108079837e-07
51	3570	1.71	8.4409716308187e-07
51	4126	1.81	7.6808875945744e-07
[...]
35	125314	23.54182493351	0.099999247858
35	125871	23.641824181272	0.099999247762
35	126428	23.741823428933	0.099999247661
35	126985	23.841822676487	0.099999247554
35	127542	23.941821923929	0.099999247442
35	128107	24.041821171253	0.099999247324
35	128664	24.141820418457	0.099999247204
35	129221	24.241819665533	0.099999247076
35	129778	24.341818912481	0.099999246948
35	130335	24.441818159295	0.099999246814
35	130892	24.541817405976	0.099999246681
35	131449	24.641816652524	0.099999246548
35	132006	24.741815898944	0.09999924642
35	132563	24.84181514525	0.099999246306
35	133120	24.941827391456	0.100012246206
35	133685	25.041826637586	0.09999924613
35	134242	25.141825883662	0.099999246076
35	134799	25.241825129708	0.099999246046
35	135356	25.341824375748	0.09999924604
35	135913	25.441823621801	0.099999246053
35	136470	25.541822867889	0.099999246088
35	137027	25.641822114026	0.099999246137
35	137584	25.741821360224	0.099999246198
35	138141	25.841820606495	0.099999246271
35	138698	25.941819852847	0.099999246352
35	139263	26.04181909929	0.099999246443
35	139820	26.141818345829	0.099999246539
35	140377	26.241817592473	0.099999246644
35	140934	26.341816839225	0.099999246752
35	141491	26.441816086091	0.099999246866
35	142048	26.541815333077	0.099999246986
35	142605	26.641827580186	0.100012247109
35	143162	26.741826827422	0.099999247236
35	143719	26.84182607479	0.099999247368
35	144276	26.941825322294	0.099999247504
35	144841	27.041824569935	0.099999247641
35	145398	27.141823817712	0.099999247777
35	145955	27.241823065618	0.099999247906
35	146512	27.341822313641	0.099999248023
35	147069	27.441821561766	0.099999248125
35	147626	27.54182080997	0.099999248204
35	148183	27.641820058232	0.099999248262
35	148740	27.741819306527	0.099999248295
35	149297	27.84181855483	0.099999248303
35	149854	27.94181780312	0.09999924829
35	150419	28.041817051381	0.099999248261
35	150976	28.141816299595	0.099999248214
35	151533	28.241815547749	0.099999248154
35	152090	28.341814795835	0.099999248086
35	152647	28.441827043841	0.100012248006
35	153204	28.541826291761	0.09999924792
35	153761	28.641825539586	0.099999247825
35	154318	28.74182478731	0.099999247724
35	154875	28.841824034928	0.099999247618
35	155432	28.941823282436	0.099999247508
35	155997	29.04182252983	0.099999247394
35	156554	29.141821777102	0.099999247272
35	157111	29.24182102425	0.099999247148
35	157668	29.34182027127	0.09999924702
35	158225	29.441819518159	0.099999246889
35	158782	29.541818764913	0.099999246754
35	159339	29.641818011535	0.099999246622
35	159896	29.741817258031	0.099999246496
35	160453	29.841816504414	0.099999246383
35	161010	29.941815750698	0.099999246284
35	161575	30.041814996904	0.099999246206
35	162132	30.141827243058	0.100012246154
35	162689	30.241826489183	0.099999246125
35	163246	30.341825735303	0.09999924612
35	163803	30.441824981438	0.099999246135
35	164360	30.541824227608	0.09999924617
35	164917	30.641823473827	0.099999246219
35	165474	30.741822720108	0.099999246281
35	166031	30.841821966463	0.099999246355
35	166588	30.941821212901	0.099999246438
35	167153	31.04182045943	0.099999246529
35	167710	31.141819706055	0.099999246625
35	168267	31.241818952783	0.099999246728
35	168824	31.341818199622	0.099999246839
35	169381	31.441817446577	0.099999246955
35	169938	31.541816693649	0.099999247072
35	170495	31.641815940845	0.099999247196
35	171052	31.741815188171	0.099999247326
35	171609	31.841827435627	0.100012247456
35	172166	31.941826683219	0.099999247592
35	172731	32.04182593095	0.099999247731
35	173288	32.141825178816	0.099999247866
35	173845	32.241824426806	0.09999924799
35	174402	32.341823674899	0.099999248093
35	174959	32.441822923059	0.09999924816
35	175516	32.541822171232	0.099999248173
35	176073	32.64182141935	0.099999248118
35	176630	32.741820667326	0.099999247976
35	177187	32.841819915051	0.099999247725
35	177744	32.941819162413	0.099999247362
35	178309	33.041818409282	0.099999246869
35	178866	33.141817655519	0.099999246237
35	179423	33.241816900984	0.099999245465
35	179980	33.341816145525	0.099999244541
35	180537	33.441815388992	0.099999243467
35	181094	33.541814631221	0.099999242229
35	181651	33.641826872053	0.100012240832
35	182208	33.741826111325	0.099999239272
35	182765	33.84182534887	0.099999237545
35	183322	33.941824584521	0.099999235651
35	183887	34.04182381811	0.099999233589
35	184444	34.141823049466	0.099999231356
35	185001	34.24182227842	0.099999228954
35	185558	34.341821504801	0.099999226381
35	186115	34.441820728435	0.099999223634
35	186672	34.541819949155	0.09999922072
35	187229	34.641819166797	0.099999217642
35	187786	34.741818381208	0.099999214411
35	188343	34.841817592251	0.099999211043
35	188900	34.941816799799	0.099999207548
35	189465	35.041816003746	0.099999203947
35	190022	35.141815204007	0.099999200261
35	190579	35.241827400517	0.10001219651
35	191136	35.341826593225	0.099999192708
35	191693	35.441825782097	0.099999188872
35	192250	35.54182496711	0.099999185013
35	192807	35.641824148254	0.099999181144
35	193364	35.74182332552	0.099999177266
35	193921	35.841822498911	0.099999173391
35	194478	35.941821668435	0.099999169524
35	195043	36.041820834101	0.099999165666
35	195600	36.141819995927	0.099999161826
35	196157	36.241819153933	0.099999158006
35	196714	36.341818308143	0.09999915421
35	197271	36.441817458578	0.099999150435
35	197828	36.54181660527	0.099999146692
35	198385	36.641815748248	0.099999142978
35	198942	36.741814887541	0.099999139293
35	199499	36.841827023185	0.100012135644
35	200056	36.941826155215	0.09999913203
35	200621	37.041825283666	0.099999128451
35	201178	37.141824408566	0.0999991249
36	964	1.24182370118	0.099999247532
36	1520	1.341822948712	0.099999247532
36	2076	1.441822196244	0.099999247532
36	2632	1.541821443776	0.099999247532
36	3188	1.641820691308	0.099999247532
36	3744	1.74181993884	0.099999247532
36	4300	1.841819186372	0.099999247532
36	4856	1.941818433904	0.099999247532
36	5420	2.041817681436	0.099999247532
36	5976	2.141816928968	0.099999247532
36	6532	2.2418161765	0.099999247532
36	7088	2.341815424032	0.099999247532
36	7644	2.441814671564	0.099999247532
36	8200	2.541826919096	0.100012247532
36	8756	2.641826166628	0.099999247532
36	9312	2.74182541416	0.099999247532
36	9868	2.841824661692	0.099999247532
36	10424	2.941823909224	0.099999247532
36	10988	3.041823156756	0.099999247532
36	11544	3.141822404288	0.099999247532
36	12100	3.24182165182	0.099999247532
36	12656	3.341820899352	0.099999247532
36	13212	3.441820146884	0.099999247532
36	13768	3.541819394416	0.099999247532
36	14324	3.641818641948	0.099999247532
36	14880	3.74181788948	0.099999247532
36	15436	3.841817137012	0.099999247532
36	15992	3.941816384544	0.099999247532
36	16556	4.041815632076	0.099999247532
36	17112	4.141814879608	0.099999247532
36	17668	4.24182712714	0.100012247532
36	18224	4.341826374672	0.099999247532
36	18780	4.441825622204	0.099999247532
36	19336	4.541824869736	0.099999247532
36	19892	4.641824117268	0.099999247532
36	20448	4.7418233648	0.099999247532
36	21004	4.841822612332	0.099999247532
36	21560	4.941821859864	0.099999247532
36	22125	5.041821107396	0.099999247532
36	22682	5.141820354928	0.099999247532
36	23239	5.241819602462	0.099999247534
36	23796	5.341818850003	0.099999247541
36	24353	5.441818097558	0.099999247555
36	24910	5.541817345144	0.099999247586
36	25467	5.641816592773	0.099999247629
36	26024	5.741815840463	0.09999924769
36	26581	5.841815088227	0.099999247764
36	27138	5.941827336077	0.10001224785
36	27703	6.041826584024	0.099999247947
36	28260	6.141825832079	0.099999248055
36	28817	6.241825080249	0.09999924817
36	29374	6.341824328538	0.099999248289
36	29931	6.441823576957	0.099999248419
36	30488	6.541822825507	0.09999924855
36	31045	6.641822074195	0.099999248688
36	31602	6.74182132302	0.099999248825
36	32159	6.841820571984	0.099999248964
36	32716	6.94181982108	0.099999249096
36	33281	7.041819070301	0.099999249221
36	33838	7.141818319631	0.09999924933
36	34395	7.241817569055	0.099999249424
36	34952	7.341816818553	0.099999249498
36	35509	7.441816068103	0.09999924955
36	36066	7.541815317682	0.099999249579
36	36623	7.641827567267	0.100012249585
36	37180	7.741826816836	0.099999249569
36	37737	7.841826066376	0.09999924954
36	38294	7.941825315868	0.099999249492
36	38859	8.0418245653	0.099999249432
36	39416	8.141823814663	0.099999249363
36	39973	8.241823063946	0.099999249283
36	40530	8.341822313142	0.099999249196
36	41087	8.441821562245	0.099999249103
36	41644	8.541820811248	0.099999249003
36	42201	8.641820060143	0.099999248895
36	42758	8.741819308928	0.099999248785
36	43315	8.841818557595	0.099999248667
36	43872	8.94181780614	0.099999248545
36	44437	9.041817054561	0.099999248421
36	44994	9.141816302853	0.099999248292
36	45551	9.241815551011	0.099999248158
36	46108	9.341814799029	0.099999248018
36	46665	9.441827046908	0.100012247879
36	47222	9.541826294643	0.099999247735
36	47779	9.641825542231	0.099999247588
36	48336	9.741824789675	0.099999247444
36	48893	9.841824036986	0.099999247311
36	49450	9.941823284177	0.099999247191
36	50015	10.041822531262	0.099999247085
36	50572	10.141821778267	0.099999247005
36	51129	10.241821025215	0.099999246948
36	51686	10.34182027213	0.099999246915
36	52243	10.441819519037	0.099999246907
36	52800	10.541818765954	0.099999246917
36	53357	10.641818012901	0.099999246947
36	53914	10.741817259893	0.099999246992
36	54471	10.841816506939	0.099999247046
36	55028	10.941815754051	0.099999247112
36	55593	11.041815001238	0.099999247187
36	56150	11.141827248508	0.10001224727
36	56707	11.241826495867	0.099999247359
36	57264	11.341825743322	0.099999247455
36	57821	11.441824990879	0.099999247557
36	58378	11.541824238541	0.099999247662
36	58935	11.641823486315	0.099999247774
36	59492	11.741822734203	0.099999247888
36	60049	11.841821982213	0.09999924801
36	60606	11.941821230343	0.09999924813
36	61171	12.041820478596	0.099999248253
36	61728	12.141819726974	0.099999248378
36	62285	12.241818975465	0.099999248491
36	62842	12.341818224057	0.099999248592
36	63399	12.441817472732	0.099999248675
36	63956	12.54181672147	0.099999248738
36	64513	12.641815970246	0.099999248776
36	65070	12.741815219038	0.099999248792
36	65627	12.84182746782	0.100012248782
36	66184	12.941826716573	0.099999248753
36	66749	13.04182596528	0.099999248707
36	67306	13.141825213926	0.099999248646
36	67863	13.241824462499	0.099999248573
36	68420	13.341823710989	0.09999924849
36	68977	13.441822959386	0.099999248397
36	69534	13.541822207683	0.099999248297
36	70091	13.641821455872	0.099999248189
36	70648	13.741820703949	0.099999248077
36	71205	13.841819951908	0.099999247959
36	71762	13.941819199745	0.099999247837
36	72327	14.041818447456	0.099999247711
36	72884	14.141817695034	0.099999247578
36	73441	14.241816942478	0.099999247444
36	73998	14.341816189784	0.099999247306
36	74555	14.441815436945	0.099999247161
36	75112	14.541814683962	0.099999247017
36	75669	14.641826930836	0.100012246874
36	76226	14.741826177572	0.099999246736
36	76783	14.841825424182	0.09999924661
36	77340	14.941824670682	0.0999992465
36	77905	15.041823917094	0.099999246412
36	78462	15.141823163442	0.099999246348
36	79019	15.241822409749	0.099999246307
36	79576	15.341821656037	0.099999246288
36	80133	15.44182090233	0.099999246293
36	80690	15.541820148648	0.099999246318
36	81247	15.641819395004	0.099999246356
36	81804	15.741818641413	0.099999246409
36	82361	15.841817887886	0.099999246473
36	82918	15.941817134431	0.099999246545
36	83483	16.041816381057	0.099999246626
36	84040	16.141815627774	0.099999246717
36	84597	16.241814874585	0.099999246811
36	85154	16.341827121497	0.100012246912
36	85711	16.441826368515	0.099999247018
36	86268	16.541825615644	0.099999247129
36	86825	16.64182486289	0.099999247246
36	87382	16.741824110255	0.099999247365
36	87939	16.841823357744	0.099999247489
36	88496	16.941822605363	0.099999247619
36	89061	17.041821853112	0.099999247749
36	89618	17.141821100989	0.099999247877
36	90175	17.241820348989	0.099999248
36	90732	17.341819597099	0.09999924811
36	91289	17.4418188453	0.099999248201
36	91846	17.541818093578	0.099999248278
36	92403	17.641817341903	0.099999248325
36	92960	17.741816590252	0.099999248349
36	93517	17.841815838605	0.099999248353
36	94074	17.941815086939	0.099999248334
36	94639	18.041827335235	0.100012248296
36	95196	18.141826583479	0.099999248244
36	95753	18.241825831659	0.09999924818
36	96310	18.341825079763	0.099999248104
36	96867	18.441824327781	0.099999248018
36	97424	18.541823575709	0.099999247928
36	97981	18.641822823536	0.099999247827
36	98538	18.741822071259	0.099999247723
36	99095	18.84182131887	0.099999247611
36	99652	18.941820566366	0.099999247496
36	100217	19.041819813741	0.099999247375
36	100774	19.14181906099	0.099999247249
36	101331	19.24181830811	0.09999924712
36	101888	19.341817555099	0.099999246989
36	102445	19.44181680195	0.099999246851
36	103002	19.541816048662	0.099999246712
36	103559	19.641815295239	0.099999246577
36	104116	19.741827541684	0.100012246445
36	104673	19.841826788013	0.099999246329
36	105230	19.94182603424	0.099999246227
36	105795	20.041825280384	0.099999246144
36	106352	20.141824526471	0.099999246087
36	106909	20.241823772525	0.099999246054
36	107466	20.34182301857	0.099999246045
36	108023	20.441822264627	0.099999246057
36	108580	20.541821510715	0.099999246088
36	109137	20.641820756849	0.099999246134
36	109694	20.741820003041	0.099999246192
36	110251	20.841819249305	0.099999246264
36	110808	20.941818495647	0.099999246342
36	111373	21.041817742074	0.099999246427
36	111930	21.141816988599	0.099999246525
36	112487	21.241816235223	0.099999246624
36	113044	21.341815481954	0.099999246731
36	113601	21.441814728798	0.099999246844
36	114158	21.541826975759	0.100012246961
36	114715	21.641826222838	0.099999247079
36	115272	21.741825470045	0.099999247207
36	115829	21.841824717382	0.099999247337
36	116386	21.941823964851	0.099999247469
36	116951	22.041823212456	0.099999247605
36	117508	22.141822460194	0.099999247738
36	118065	22.241821708061	0.099999247867
36	118622	22.341820956043	0.099999247982
36	119179	22.441820204122	0.099999248079
36	119736	22.541819452279	0.099999248157
36	120293	22.641818700492	0.099999248213
36	120850	22.741817948735	0.099999248243
36	121407	22.841817196987	0.099999248252
36	121964	22.941816445224	0.099999248237
36	122529	23.041815693429	0.099999248205
36	123086	23.141814941586	0.099999248157
36	123643	23.241827189682	0.100012248096
36	124200	23.341826437708	0.099999248026
36	124757	23.441825685652	0.099999247944
36	125314	23.54182493351	0.099999247858
36	125871	23.641824181272	0.099999247762
36	126428	23.741823428933	0.099999247661
36	126985	23.841822676487	0.099999247554
36	127542	23.941821923929	0.099999247442
36	128107	24.041821171253	0.099999247324
36	128664	24.141820418457	0.099999247204
36	129221	24.241819665533	0.099999247076
36	129778	24.341818912481	0.099999246948
36	130335	24.441818159295	0.099999246814
36	130892	24.541817405976	0.099999246681
36	131449	24.641816652524	0.099999246548
36	132006	24.741815898944	0.09999924642
36	132563	24.84181514525	0.099999246306
36	133120	24.941827391456	0.100012246206
36	133685	25.041826637586	0.09999924613
36	134242	25.141825883662	0.099999246076
36	134799	25.241825129708	0.099999246046
36	135356	25.341824375748	0.09999924604
36	135913	25.441823621801	0.099999246053
36	136470	25.541822867889	0.099999246088
36	137027	25.641822114026	0.099999246137
36	137584	25.741821360224	0.099999246198
36	138141	25.841820606495	0.099999246271
36	138698	25.941819852847	0.099999246352
36	139263	26.04181909929	0.099999246443
36	139820	26.141818345829	0.099999246539
36	140377	26.241817592473	0.099999246644
36	140934	26.341816839225	0.099999246752
36	141491	26.441816086091	0.099999246866
36	142048	26.541815333077	0.099999246986
36	142605	26.641827580186	0.100012247109
36	143162	26.741826827422	0.099999247236
36	143719	26.84182607479	0.099999247368
36	144276	26.941825322294	0.099999247504
36	144841	27.041824569935	0.099999247641
36	145398	27.141823817712	0.099999247777
36	145955	27.241823065618	0.099999247906
36	146512	27.341822313641	0.099999248023
36	147069	27.441821561766	0.099999248125
36	147626	27.54182080997	0.099999248204
36	148183	27.641820058232	0.099999248262
36	148740	27.741819306527	0.099999248295
36	149297	27.84181855483	0.099999248303
36	149854	27.94181780312	0.09999924829
36	150419	28.041817051381	0.099999248261
36	150976	28.141816299595	0.099999248214
36	151533	28.241815547749	0.099999248154
36	152090	28.341814795835	0.099999248086
36	152647	28.441827043841	0.100012248006
36	153204	28.541826291761	0.09999924792
36	153761	28.641825539586	0.099999247825
36	154318	28.74182478731	0.099999247724
36	154875	28.841824034928	0.099999247618
36	155432	28.941823282436	0.099999247508
36	155997	29.04182252983	0.099999247394
36	156554	29.141821777102	0.099999247272
36	157111	29.24182102425	0.099999247148
36	157668	29.34182027127	0.09999924702
36	158225	29.441819518159	0.099999246889
36	158782	29.541818764913	0.099999246754
36	159339	29.641818011535	0.099999246622
36	159896	29.741817258031	0.099999246496
36	160453	29.841816504414	0.099999246383
36	161010	29.941815750698	0.099999246284
36	161575	30.041814996904	0.099999246206
36	162132	30.141827243058	0.100012246154
36	162689	30.241826489183	0.099999246125
36	163246	30.341825735303	0.09999924612
36	163803	30.441824981438	0.099999246135
36	164360	30.541824227608	0.09999924617
36	164917	30.641823473827	0.099999246219
36	165474	30.741822720108	0.099999246281
36	166031	30.841821966463	0.099999246355
36	166588	30.941821212901	0.099999246438
36	167153	31.04182045943	0.099999246529
36	167710	31.141819706055	0.099999246625
36	168267	31.241818952783	0.099999246728
36	168824	31.341818199622	0.099999246839
36	169381	31.441817446577	0.099999246955
36	169938	31.541816693649	0.099999247072
36	170495	31.641815940845	0.099999247196
36	171052	31.741815188171	0.099999247326
36	171609	31.841827435627	0.100012247456
36	172166	31.941826683219	0.099999247592
36	172731	32.04182593095	0.099999247731
36	173288	32.141825178816	0.099999247866
36	173845	32.241824426806	0.09999924799
36	174402	32.341823674899	0.099999248093
36	174959	32.441822923059	0.09999924816
36	175516	32.541822171232	0.099999248173
36	176073	32.64182141935	0.099999248118
36	176630	32.741820667326	0.099999247976
36	177187	32.841819915051	0.099999247725
36	177744	32.941819162413	0.099999247362
36	178309	33.041818409282	0.099999246869
36	178866	33.141817655519	0.099999246237
36	179423	33.241816900984	0.099999245465
36	179980	33.341816145525	0.099999244541
36	180537	33.441815388992	0.099999243467
36	181094	33.541814631221	0.099999242229
36	181651	33.641826872053	0.100012240832
36	182208	33.741826111325	0.099999239272
36	182765	33.84182534887	0.099999237545
36	183322	33.941824584521	0.099999235651
36	183887	34.04182381811	0.099999233589
36	184444	34.141823049466	0.099999231356
36	185001	34.24182227842	0.099999228954
36	185558	34.341821504801	0.099999226381
36	186115	34.441820728435	0.099999223634
36	186672	34.541819949155	0.09999922072
36	187229	34.641819166797	0.099999217642
36	187786	34.741818381208	0.099999214411
36	188343	34.841817592251	0.099999211043
36	188900	34.941816799799	0.099999207548
36	189465	35.041816003746	0.099999203947
36	190022	35.141815204007	0.099999200261
36	190579	35.241827400517	0.10001219651
36	191136	35.341826593225	0.099999192708
36	191693	35.441825782097	0.099999188872
36	192250	35.54182496711	0.099999185013
36	192807	35.641824148254	0.099999181144
36	193364	35.74182332552	0.099999177266
36	193921	35.841822498911	0.099999173391
36	194478	35.941821668435	0.099999169524
36	195043	36.041820834101	0.099999165666
36	195600	36.141819995927	0.099999161826
36	196157	36.241819153933	0.099999158006
36	196714	36.341818308143	0.09999915421
36	197271	36.441817458578	0.099999150435
36	197828	36.54181660527	0.099999146692
36	198385	36.641815748248	0.099999142978
36	198942	36.741814887541	0.099999139293
36	199499	36.841827023185	0.100012135644
36	200056	36.941826155215	0.09999913203
36	200621	37.041825283666	0.099999128451
36	201178	37.141824408566	0.0999991249
