file 1686360 1501772098                                         
version 2
run SinusoidalJammingDetail-466-20170803-16:54:27-57244
attr CACCSpacing 5
attr attackAcc -30
attr attackPos 7
attr attackSpeed 150
attr attackStart 31.5
attr attacker 1
attr beaconInterval 0.1
attr configname SinusoidalJammingDetail
attr controller 3
attr datetime 20170803-16:54:27
attr experiment SinusoidalJammingDetail
attr fakeAcc "(1 == 4)"
attr fakePos "(1 == 2)"
attr fakeSpeed "(1 == 3)"
attr inifile omnetpp_466.ini
attr iterationvars "$leaderSpeed=80, $controller=3, $CACCSpacing=5, $sController=\"CONSENSUS\", $attacker=1, $attackStart=31.5, $attackSpeed=150, $attackPos=7, $attackAcc=-30, $0=5, $1=0.8, $nCars=8, $platoonSize=8, $nLanes=1, $beaconInterval=0.1, $priority=2, $packetSize=200, $ploegH=0.5, $leaderHeadway=1.2, $fakeSpeed=(1 == 3), $fakeAcc=(1 == 4), $fakePos=(1 == 2)"
attr iterationvarsf leaderSpeed=80,controller=3,CACCSpacing=5,sController=CONSENSUS,attacker=1,attackStart=31.5,attackSpeed=150,attackPos=7,attackAcc=-30,5,0.8,nCars=8,platoonSize=8,nLanes=1,beaconInterval=0.1,priority=2,packetSize=200,ploegH=0.5,leaderHeadway=1.2,fakeSpeed=(1_==_3),fakeAcc=(1_==_4),fakePos=(1_==_2)-
attr leaderHeadway 1.2
attr leaderSpeed 80
attr measurement "$leaderSpeed=80, $controller=3, $CACCSpacing=5, $sController=\"CONSENSUS\", $attacker=1, $attackStart=31.5, $attackSpeed=150, $attackPos=7, $attackAcc=-30, $0=5, $1=0.8, $nCars=8, $platoonSize=8, $nLanes=1, $beaconInterval=0.1, $priority=2, $packetSize=200, $ploegH=0.5, $leaderHeadway=1.2, $fakeSpeed=(1 == 3), $fakeAcc=(1 == 4), $fakePos=(1 == 2)"
attr nCars 8
attr nLanes 1
attr network scenario
attr packetSize 200
attr platoonSize 8
attr ploegH 0.5
attr priority 2
attr processid 57244
attr repetition 1
attr replication #1
attr resultdir results
attr runnumber 466
attr sController "\"CONSENSUS\""
attr seedset 1
param **.coreDebug false
param **.debug false
param **.headway 0.1s
param **.numberOfCars 8
param **.numberOfCarsPerPlatoon 8
param **.numberOfLanes 1
param **.numericController 3
param **.traffic.nCars 8
param **.traffic.nLanes 1
param **.traffic.platoonInsertDistance 5m
param **.traffic.platoonInsertHeadway 0.8s
param **.traffic.platoonInsertSpeed 80kmph
param **.traffic.platoonInsertTime "1 s"
param **.traffic.platoonLeaderHeadway 1.2s
param **.traffic.platoonSize 8
param **.traffic.platooningVType "\"vtypeauto\""
param **.traffic_type "\"PlatoonsTrafficManager\""
param *.**.nic.mac1609_4.bitrate 6Mbps
param *.**.nic.mac1609_4.txPower 100mW
param *.**.nic.mac1609_4.useServiceChannel false
param *.**.nic.phy80211p.analogueModels "xmldoc(\"config.xml\")"
param *.**.nic.phy80211p.decider "xmldoc(\"config.xml\")"
param *.**.nic.phy80211p.maxTXPower 100mW
param *.**.nic.phy80211p.sensitivity -94dBm
param *.**.nic.phy80211p.thermalNoise -95dBm
param *.**.nic.phy80211p.usePropagationDelay true
param *.**.nic.phy80211p.useThermalNoise true
param *.annotations.draw false
param *.connectionManager.alpha 2.0
param *.connectionManager.carrierFrequency "5.890e9 Hz"
param *.connectionManager.pMax 100mW
param *.connectionManager.sat -94dBm
param *.connectionManager.sendDirect true
param *.manager.autoShutdown true
param *.manager.commandLine "\"sumo --remote-port $port --seed $seed --configuration-file $configFile\""
param *.manager.configFile "\"./sumocfg/freeway.sumo.cfg\""
param *.manager.host "\"localhost\""
param *.manager.margin 25
param *.manager.moduleDisplayString "\"\""
param *.manager.moduleName "\"node\""
param *.manager.moduleType "\"Car\""
param *.manager.updateInterval 0.01s
param *.node[*].appl.attackStart 31.5s
param *.node[*].appl.attackerType 1
param *.node[*].appl.simulationDuration "60 s"
param *.node[*].appl_type "\"SimplePlatooningApp\""
param *.node[*].helper.nCars 8
param *.node[*].helper.nLanes 1
param *.node[*].helper.platoonSize 8
param *.node[*].helper_type "\"PositionHelper\""
param *.node[*].mobility.x 0
param *.node[*].mobility.y 0
param *.node[*].mobility.z 1.895
param *.node[*].prot.attackStart 31.5s
param *.node[*].prot.attackerType 1
param *.node[*].prot.attackingNode 3
param *.node[*].prot.beaconingInterval 0.1s
param *.node[*].prot.fakeAcc "(1 == 4)"
param *.node[*].prot.fakePos "(1 == 2)"
param *.node[*].prot.fakeSpeed "(1 == 3)"
param *.node[*].prot.maliciousAcc "-30 mpss"
param *.node[*].prot.maliciousSpeed 150kmph
param *.node[*].prot.packetSize 200
param *.node[*].prot.priority 2
param *.node[*].prot.shiftX "7 m"
param *.node[*].prot.useControllerAcceleration true
param *.node[*].protocol_type "\"SimplePlatooningBeaconing\""
param *.node[*].scenario.accHeadway 0.1s
param *.node[*].scenario.caccC1 0.5
param *.node[*].scenario.caccOmegaN "0.2 Hz"
param *.node[*].scenario.caccSpacing 5m
param *.node[*].scenario.caccXi 1
param *.node[*].scenario.controller "\"CONSENSUS\""
param *.node[*].scenario.engineTau "0.5 s"
param *.node[*].scenario.leaderHeadway 1.2s
param *.node[*].scenario.leaderOscillationFrequency "0.2 Hz"
param *.node[*].scenario.leaderSpeed 80kmph
param *.node[*].scenario.oscillationAmplitude "10 kmph"
param *.node[*].scenario.ploegH 0.5s
param *.node[*].scenario.ploegKd 0.7
param *.node[*].scenario.ploegKp 0.2
param *.node[*].scenario.startOscillating "5 s"
param *.node[*].scenario.useRealisticEngine false
param *.node[*].scenario_type "\"SinusoidalScenario\""
param *.node[*].unicast.packetLossRate 0
param *.obstacles.debug false
param *.playgroundSizeX 65000m
param *.playgroundSizeY 25000m
param *.playgroundSizeZ 50m
param *.world.use2D false
param *.world.useTorus false

vector 0  scenario.node[0].appl  distance  ETV
vector 1  scenario.node[0].appl  relativeSpeed  ETV
vector 2  scenario.node[0].appl  nodeId  ETV
vector 6  scenario.node[0].appl  acceleration  ETV
vector 7  scenario.node[0].appl  controllerAcceleration  ETV
vector 3  scenario.node[0].appl  speed  ETV
vector 4  scenario.node[0].appl  posx  ETV
vector 5  scenario.node[0].appl  posy  ETV
vector 22  scenario.node[1].appl  distance  ETV
vector 23  scenario.node[1].appl  relativeSpeed  ETV
vector 24  scenario.node[1].appl  nodeId  ETV
vector 28  scenario.node[1].appl  acceleration  ETV
vector 29  scenario.node[1].appl  controllerAcceleration  ETV
vector 25  scenario.node[1].appl  speed  ETV
vector 26  scenario.node[1].appl  posx  ETV
vector 27  scenario.node[1].appl  posy  ETV
vector 44  scenario.node[2].appl  distance  ETV
vector 45  scenario.node[2].appl  relativeSpeed  ETV
vector 46  scenario.node[2].appl  nodeId  ETV
vector 50  scenario.node[2].appl  acceleration  ETV
vector 51  scenario.node[2].appl  controllerAcceleration  ETV
vector 47  scenario.node[2].appl  speed  ETV
vector 48  scenario.node[2].appl  posx  ETV
vector 49  scenario.node[2].appl  posy  ETV
vector 66  scenario.node[3].appl  distance  ETV
vector 67  scenario.node[3].appl  relativeSpeed  ETV
vector 68  scenario.node[3].appl  nodeId  ETV
vector 72  scenario.node[3].appl  acceleration  ETV
vector 73  scenario.node[3].appl  controllerAcceleration  ETV
vector 69  scenario.node[3].appl  speed  ETV
vector 70  scenario.node[3].appl  posx  ETV
vector 71  scenario.node[3].appl  posy  ETV
vector 88  scenario.node[4].appl  distance  ETV
vector 89  scenario.node[4].appl  relativeSpeed  ETV
vector 90  scenario.node[4].appl  nodeId  ETV
vector 94  scenario.node[4].appl  acceleration  ETV
vector 95  scenario.node[4].appl  controllerAcceleration  ETV
vector 91  scenario.node[4].appl  speed  ETV
vector 92  scenario.node[4].appl  posx  ETV
vector 93  scenario.node[4].appl  posy  ETV
vector 110  scenario.node[5].appl  distance  ETV
vector 111  scenario.node[5].appl  relativeSpeed  ETV
vector 112  scenario.node[5].appl  nodeId  ETV
vector 116  scenario.node[5].appl  acceleration  ETV
vector 117  scenario.node[5].appl  controllerAcceleration  ETV
vector 113  scenario.node[5].appl  speed  ETV
vector 114  scenario.node[5].appl  posx  ETV
vector 115  scenario.node[5].appl  posy  ETV
vector 132  scenario.node[6].appl  distance  ETV
vector 133  scenario.node[6].appl  relativeSpeed  ETV
vector 134  scenario.node[6].appl  nodeId  ETV
vector 138  scenario.node[6].appl  acceleration  ETV
vector 139  scenario.node[6].appl  controllerAcceleration  ETV
vector 135  scenario.node[6].appl  speed  ETV
vector 136  scenario.node[6].appl  posx  ETV
vector 137  scenario.node[6].appl  posy  ETV
vector 154  scenario.node[7].appl  distance  ETV
vector 155  scenario.node[7].appl  relativeSpeed  ETV
vector 156  scenario.node[7].appl  nodeId  ETV
vector 160  scenario.node[7].appl  acceleration  ETV
vector 161  scenario.node[7].appl  controllerAcceleration  ETV
vector 157  scenario.node[7].appl  speed  ETV
vector 158  scenario.node[7].appl  posx  ETV
vector 159  scenario.node[7].appl  posy  ETV
vector 58  scenario.node[2].prot  frontDelay  ETV
vector 56  scenario.node[2].prot  frontDelayId  ETV
vector 102  scenario.node[4].prot  frontDelay  ETV
vector 100  scenario.node[4].prot  frontDelayId  ETV
vector 146  scenario.node[6].prot  frontDelay  ETV
vector 144  scenario.node[6].prot  frontDelayId  ETV
vector 168  scenario.node[7].prot  frontDelay  ETV
vector 166  scenario.node[7].prot  frontDelayId  ETV
vector 124  scenario.node[5].prot  frontDelay  ETV
vector 122  scenario.node[5].prot  frontDelayId  ETV
vector 35  scenario.node[1].prot  leaderDelay  ETV
vector 33  scenario.node[1].prot  leaderDelayId  ETV
vector 36  scenario.node[1].prot  frontDelay  ETV
vector 34  scenario.node[1].prot  frontDelayId  ETV
vector 57  scenario.node[2].prot  leaderDelay  ETV
vector 55  scenario.node[2].prot  leaderDelayId  ETV
vector 79  scenario.node[3].prot  leaderDelay  ETV
vector 77  scenario.node[3].prot  leaderDelayId  ETV
vector 101  scenario.node[4].prot  leaderDelay  ETV
vector 99  scenario.node[4].prot  leaderDelayId  ETV
vector 123  scenario.node[5].prot  leaderDelay  ETV
vector 121  scenario.node[5].prot  leaderDelayId  ETV
vector 145  scenario.node[6].prot  leaderDelay  ETV
vector 143  scenario.node[6].prot  leaderDelayId  ETV
vector 167  scenario.node[7].prot  leaderDelay  ETV
vector 165  scenario.node[7].prot  leaderDelayId  ETV
vector 80  scenario.node[3].prot  frontDelay  ETV
vector 78  scenario.node[3].prot  frontDelayId  ETV
vector 8  scenario.node[0].prot  nodeId  ETV
vector 9  scenario.node[0].prot  busyTime  ETV
vector 10  scenario.node[0].prot  collisions  ETV
vector 30  scenario.node[1].prot  nodeId  ETV
vector 31  scenario.node[1].prot  busyTime  ETV
vector 32  scenario.node[1].prot  collisions  ETV
vector 52  scenario.node[2].prot  nodeId  ETV
vector 53  scenario.node[2].prot  busyTime  ETV
vector 54  scenario.node[2].prot  collisions  ETV
vector 74  scenario.node[3].prot  nodeId  ETV
vector 75  scenario.node[3].prot  busyTime  ETV
vector 76  scenario.node[3].prot  collisions  ETV
vector 96  scenario.node[4].prot  nodeId  ETV
vector 97  scenario.node[4].prot  busyTime  ETV
vector 98  scenario.node[4].prot  collisions  ETV
vector 118  scenario.node[5].prot  nodeId  ETV
vector 119  scenario.node[5].prot  busyTime  ETV
vector 120  scenario.node[5].prot  collisions  ETV
vector 140  scenario.node[6].prot  nodeId  ETV
vector 141  scenario.node[6].prot  busyTime  ETV
vector 142  scenario.node[6].prot  collisions  ETV
vector 162  scenario.node[7].prot  nodeId  ETV
vector 163  scenario.node[7].prot  busyTime  ETV
vector 164  scenario.node[7].prot  collisions  ETV
7	11271 13855 232 328174 1.11 59.91 589 -1.5 1.5 -14.445957496355 993.24092342393
6	25126 18568 232 328174 1.11 59.91 589 -1.4722746795719 1.4513434175793 -12.507252200722 675.29835178084
5	43694 12081 232 328174 1.11 59.91 589 36.55 36.55 21527.95 786846.5725
4	55775 17904 232 328174 1.11 59.91 589 222.2720573428 1533.2548547072 517822.44424978 539656314.56629
3	73679 17918 232 328174 1.11 59.91 589 20.932410304178 24.18693697487 13131.616571188 293209.28872176
1	91597 9725 232 328174 1.11 59.91 589 0 0 0 0
0	101322 10314 232 328174 1.11 59.91 589 -1 -1 -589 589
2	111636 9725 232 328174 1.11 59.91 589 0 0 0 0
10	121361 858 5168 328662 2 60 59 0 0 0 0
9	122219 1154 5168 328662 2 60 59 0.023297 0.02625 1.545797 0.040508375209
8	123373 799 5168 328662 2 60 59 0 0 0 0
29	124172 19747 233 328175 1.11 59.91 589 -4.5299821252229 2.0650965390476 2.8000025927168 706.34332842057
28	143919 19756 233 328175 1.11 59.91 589 -2.542380001719 1.7150010634676 0.75921255196754 449.04379491171
27	163675 12670 233 328175 1.11 59.91 589 36.55 36.55 21527.95 786846.5725
26	176345 18503 233 328175 1.11 59.91 589 195.49428634644 1497.0781529921 496519.444836 502569045.22846
25	194848 18501 233 328175 1.11 59.91 589 19.597462853745 23.75707865937 13038.085238967 288991.25947767
23	213349 19127 233 328175 1.11 59.91 589 -1.3577467343534 2.6247592830456 93.656404742073 578.33762400989
22	232476 18489 233 328175 1.11 59.91 589 22.777770996243 34.569090403076 18945.128787133 611845.95880987
24	250965 10314 233 328175 1.11 59.91 589 1 1 589 589
36	261279 23702 1238 328624 1.297803679642 59.997809245318 588 0.099999429148 0.100012967112 58.800004994824 5.8800010001205
35	284981 23702 1238 328624 1.297803679642 59.997809245318 588 0.099999429148 0.100012967112 58.800004994824 5.8800010001205
34	308683 16124 1238 328624 1.297803679642 59.997809245318 588 1 1 588 588
33	324807 16124 1238 328624 1.297803679642 59.997809245318 588 1 1 588 588
32	340931 858 5169 328663 2 60 59 0 0 0 0
31	341789 1213 5169 328663 2 60 59 0.023297 0.02625 1.545797 0.040508375209
30	343002 858 5169 328663 2 60 59 1 1 59 59
51	343860 19734 234 328176 1.11 59.91 589 -5.0999959081974 1.6624098142358 -0.05274326842219 507.91071395933
50	363594 19799 234 328176 1.11 59.91 589 -2.8387214088401 1.3653081779488 0.75334064533266 293.65063664851
49	383393 12670 234 328176 1.11 59.91 589 36.55 36.55 21527.95 786846.5725
48	396063 18488 234 328176 1.11 59.91 589 168.71650009155 1460.2457863417 475571.09863946 467210221.70719
47	414551 18499 234 328176 1.11 59.91 589 19.091463960992 23.252626381791 12937.539495713 284571.2330041
45	433050 19765 234 328176 1.11 59.91 589 -0.35706833501841 1.2112489736452 100.53815112913 97.257303169605
44	452815 18487 234 328176 1.11 59.91 589 22.777786254883 33.044186194341 18590.335281669 590809.30783703
46	471302 10314 234 328176 1.11 59.91 589 2 2 1178 2356
58	481616 23693 832 328218 1.212436518457 59.912441653753 588 0.099999429136 0.100012959766 58.800004564432 5.8800009140444
57	505309 23682 1244 328630 1.297803768965 59.997809368177 588 0.09999942915 0.100012967112 58.800005028362 5.8800010068281
56	528991 16105 832 328218 1.212436518457 59.912441653753 588 2 2 1176 2352
55	545096 16106 1244 328630 1.297803768965 59.997809368177 588 2 2 1176 2352
54	561202 858 5170 328664 2 60 59 0 0 0 0
53	562060 1213 5170 328664 2 60 59 0.023296 0.02625 1.545796 0.040508328616
52	563273 858 5170 328664 2 60 59 2 2 118 236
73	564131 19687 235 328177 1.11 59.91 589 -5.4162679035025 1.8008211604309 7.0936646991937 525.65296886547
72	583818 19714 235 328177 1.11 59.91 589 -3.0623193128513 1.4875466282511 0.91203394167145 317.13412265818
71	603532 12670 235 328177 1.11 59.91 589 36.55 36.55 21527.95 786846.5725
70	616202 18501 235 328177 1.11 59.91 589 141.93872909546 1423.4143152404 454949.96634972 433589036.88665
69	634703 18506 235 328177 1.11 59.91 589 18.818773627592 23.270121276537 12837.00315146 280304.72119466
67	653209 19727 235 328177 1.11 59.91 589 -0.070602918067546 0.89221044459638 100.52881084616 57.499265272811
66	672936 18488 235 328177 1.11 59.91 589 22.776883433365 32.831465717755 18263.121562856 571840.88701457
68	691424 10314 235 328177 1.11 59.91 589 3 3 1767 5301
80	701738 23703 1306 328701 1.307225858285 60.007218491034 588 0.099999429149 0.100012949533 58.799992061898 5.8799984133741
79	725441 23718 1250 328636 1.297803858285 59.997809491034 588 0.099999429149 0.100012967113 58.800005061898 5.8800010135353
78	749159 16112 1306 328701 1.307225858285 60.007218491034 588 3 3 1764 5292
77	765271 16124 1250 328636 1.297803858285 59.997809491034 588 3 3 1764 5292
76	781395 858 5171 328665 2 60 59 0 0 0 0
75	782253 1213 5171 328665 2 60 59 0.023297 0.02625 1.545797 0.040508375209
74	783466 858 5171 328665 2 60 59 3 3 177 531
95	784324 19657 236 328178 1.11 59.91 589 -5.8102255463516 1.7521754325158 5.3201751489425 520.71244415184
94	803981 19666 236 328178 1.11 59.91 589 -3.2843403548977 1.4622226027441 0.71459619437704 316.92098416763
93	823647 12670 236 328178 1.11 59.91 589 36.55 36.55 21527.95 786846.5725
92	836317 18483 236 328178 1.11 59.91 589 115.16095046997 1386.5857039262 434628.059473 401672311.15696
91	854800 18501 236 328178 1.11 59.91 589 18.576130298126 23.161098969016 12736.491719626 276063.56559501
89	873301 19586 236 328178 1.11 59.91 589 -0.0030470803981757 0.66445219371978 100.50231149447 43.573141329775
88	892887 18505 236 328178 1.11 59.91 589 22.777778625488 32.828594203962 17963.896648084 554429.30843699
90	911392 10314 236 328178 1.11 59.91 589 4 4 2356 9424
102	921706 24299 902 328282 1.235040697099 59.935045899456 588 0.099999429136 0.100012961355 58.800004631493 5.8800009274566
101	946005 24292 1256 328642 1.297803947606 59.997809613881 588 0.099999429149 0.100012967113 58.800005095424 5.8800010202405
100	970297 16711 902 328282 1.235040697099 59.935045899456 588 4 4 2352 9408
99	987008 16119 1256 328642 1.297803947606 59.997809613881 588 4 4 2352 9408
98	1003127 858 5172 328666 2 60 59 0 0 0 0
97	1003985 1213 5172 328666 2 60 59 0.023297 0.02625 1.545797 0.040508375209
96	1005198 858 5172 328666 2 60 59 4 4 236 944
117	1006056 20209 237 328179 1.11 59.91 589 -6.2050143653226 1.6258677479067 -4.251354931473 514.10274639548
116	1026265 20228 237 328179 1.11 59.91 589 -3.5069589216182 1.4035821122093 0.88014627717428 319.60619253356
115	1046493 13259 237 328179 1.11 59.91 589 36.55 36.55 21527.95 786846.5725
114	1059752 19067 237 328179 1.11 59.91 589 88.383171844482 1349.7636864238 414578.41597604 371425250.73507
113	1078819 19091 237 328179 1.11 59.91 589 18.32584631445 22.971573750924 12636.053515102 271853.79737765
111	1097910 20057 237 328179 1.11 59.91 589 0 0.53483289671777 100.43105856276 35.341841014319
110	1117967 19102 237 328179 1.11 59.91 589 22.777778625488 32.821978071994 17691.634732874 538490.4307993
112	1137069 10903 237 328179 1.11 59.91 589 5 5 2945 14725
124	1147972 24275 1178 328558 1.297390322347 59.997382758941 588 0.099999429137 0.100012948382 58.799991865731 5.8799983741403
123	1172247 24283 1262 328648 1.297804036928 59.997809736707 588 0.09999942915 0.100012967115 58.800005128929 5.8800010269415
122	1196530 16702 1178 328558 1.297390322347 59.997382758941 588 5 5 2940 14700
121	1213232 16704 1262 328648 1.297804036928 59.997809736707 588 5 5 2940 14700
120	1229936 917 5173 328667 2 60 59 0 0 0 0
119	1230853 1272 5173 328667 2 60 59 0.023297 0.02625 1.545797 0.040508375209
118	1232125 917 5173 328667 2 60 59 5 5 295 1475
139	1233042 20106 238 328180 1.11 59.91 589 -6.5981338632971 1.6163365459354 4.7604308590293 534.78100847873
138	1253148 20154 238 328180 1.11 59.91 589 -3.7306963948325 1.3567709221977 0.56898109028651 324.0331115312
137	1273302 13259 238 328180 1.11 59.91 589 36.55 36.55 21527.95 786846.5725
136	1286561 19084 238 328180 1.11 59.91 589 61.605393218994 1312.9538203026 394777.47230946 342813534.1571
135	1305645 19085 238 328180 1.11 59.91 589 18.075697268533 22.700210410568 12535.72607533 267670.34326578
133	1324730 19988 238 328180 1.11 59.91 589 0 0.46183644883342 100.31863830911 29.784315404022
132	1344718 19088 238 328180 1.11 59.91 589 22.777778625488 32.809793072457 17442.937117786 523843.29525836
134	1363806 10903 238 328180 1.11 59.91 589 6 6 3534 21204
146	1374709 24279 970 328350 1.248713875741 59.948706145066 588 0.099999429136 0.100012954202 58.799991698461 5.8799983406862
145	1398988 24294 1268 328654 1.297804126249 59.997809859492 588 0.09999942915 0.100012967118 58.800005162393 5.8800010336343
144	1423282 16705 970 328350 1.248713875741 59.948706145066 588 6 6 3528 21168
143	1439987 16705 1268 328654 1.297804126249 59.997809859492 588 6 6 3528 21168
142	1456692 917 5174 328668 2 60 59 0 0 0 0
141	1457609 1272 5174 328668 2 60 59 0.023297 0.02625 1.545797 0.040508375209
140	1458881 917 5174 328668 2 60 59 6 6 354 2124
161	1459798 20051 239 328181 1.11 59.91 589 -6.9922451797424 1.5452557268063 -0.093802915900095 542.16360669367
160	1479849 20105 239 328181 1.11 59.91 589 -3.9527707454972 1.31180056446 0.47555256367389 329.70010974904
159	1499954 13259 239 328181 1.11 59.91 589 36.55 36.55 21527.95 786846.5725
158	1513213 19093 239 328181 1.11 59.91 589 34.827616024017 1276.1639946304 375206.48675652 315804783.77166
157	1532306 19076 239 328181 1.11 59.91 589 17.830106256922 22.369606078399 12435.607054098 263513.64011689
155	1551382 19898 239 328181 1.11 59.91 589 0 0.39775112192376 100.11333142036 25.830650455263
154	1571280 19093 239 328181 1.11 59.91 589 22.777777194977 32.789704021454 17212.98317251 510237.84338387
156	1590373 10903 239 328181 1.11 59.91 589 7 7 4123 28861
168	1601276 24281 1040 328420 1.263894965062 59.963887267785 588 0.099999429136 0.100012948015 58.799991731859 5.8799983473661
167	1625557 24287 1274 328660 1.297804215571 59.997809982211 588 0.099999429151 0.100012967122 58.800005195791 5.8800010403139
166	1649844 16699 1040 328420 1.263894965062 59.963887267785 588 7 7 4116 28812
165	1666543 16711 1274 328660 1.297804215571 59.997809982211 588 7 7 4116 28812
164	1683254 917 5175 328669 2 60 59 0 0 0 0
163	1684171 1272 5175 328669 2 60 59 0.023297 0.02625 1.545797 0.040508375209
162	1685443 917 5175 328669 2 60 59 7 7 413 2891
