version 2
run SinusoidalJammingDetail-711-20170801-18:48:27-38347
attr CACCSpacing 11
attr attackAcc -30
attr attackPos 7
attr attackSpeed 150
attr attackStart 32
attr attacker 1
attr beaconInterval 0.1
attr configname SinusoidalJammingDetail
attr controller 1
attr datetime 20170801-18:48:27
attr experiment SinusoidalJammingDetail
attr fakeAcc "(1 == 4)"
attr fakePos "(1 == 2)"
attr fakeSpeed "(1 == 3)"
attr inifile omnetpp_711.ini
attr iterationvars "$leaderSpeed=150, $controller=1, $CACCSpacing=11, $sController=\"CACC\", $attacker=1, $attackStart=32, $attackSpeed=150, $attackPos=7, $attackAcc=-30, $0=11, $1=0, $nCars=8, $platoonSize=8, $nLanes=1, $beaconInterval=0.1, $priority=2, $packetSize=200, $ploegH=0.5, $leaderHeadway=1.2, $fakeSpeed=(1 == 3), $fakeAcc=(1 == 4), $fakePos=(1 == 2)"
attr iterationvarsf leaderSpeed=150,controller=1,CACCSpacing=11,sController=CACC,attacker=1,attackStart=32,attackSpeed=150,attackPos=7,attackAcc=-30,11,0,nCars=8,platoonSize=8,nLanes=1,beaconInterval=0.1,priority=2,packetSize=200,ploegH=0.5,leaderHeadway=1.2,fakeSpeed=(1_==_3),fakeAcc=(1_==_4),fakePos=(1_==_2)-
attr leaderHeadway 1.2
attr leaderSpeed 150
attr measurement "$leaderSpeed=150, $controller=1, $CACCSpacing=11, $sController=\"CACC\", $attacker=1, $attackStart=32, $attackSpeed=150, $attackPos=7, $attackAcc=-30, $0=11, $1=0, $nCars=8, $platoonSize=8, $nLanes=1, $beaconInterval=0.1, $priority=2, $packetSize=200, $ploegH=0.5, $leaderHeadway=1.2, $fakeSpeed=(1 == 3), $fakeAcc=(1 == 4), $fakePos=(1 == 2)"
attr nCars 8
attr nLanes 1
attr network scenario
attr packetSize 200
attr platoonSize 8
attr ploegH 0.5
attr priority 2
attr processid 38347
attr repetition 1
attr replication #1
attr resultdir results
attr runnumber 711
attr sController "\"CACC\""
attr seedset 1
param **.coreDebug false
param **.debug false
param **.headway 0.1s
param **.numberOfCars 8
param **.numberOfCarsPerPlatoon 8
param **.numberOfLanes 1
param **.numericController 1
param **.traffic.nCars 8
param **.traffic.nLanes 1
param **.traffic.platoonInsertDistance 11m
param **.traffic.platoonInsertHeadway 0s
param **.traffic.platoonInsertSpeed 150kmph
param **.traffic.platoonInsertTime "1 s"
param **.traffic.platoonLeaderHeadway 1.2s
param **.traffic.platoonSize 8
param **.traffic.platooningVType "\"vtypeauto\""
param **.traffic_type "\"PlatoonsTrafficManager\""
param *.**.nic.mac1609_4.bitrate 6Mbps
param *.**.nic.mac1609_4.txPower 100mW
param *.**.nic.mac1609_4.useServiceChannel false
param *.**.nic.phy80211p.analogueModels "xmldoc(\"config.xml\")"
param *.**.nic.phy80211p.decider "xmldoc(\"config.xml\")"
param *.**.nic.phy80211p.maxTXPower 100mW
param *.**.nic.phy80211p.sensitivity -94dBm
param *.**.nic.phy80211p.thermalNoise -95dBm
param *.**.nic.phy80211p.usePropagationDelay true
param *.**.nic.phy80211p.useThermalNoise true
param *.annotations.draw false
param *.connectionManager.alpha 2.0
param *.connectionManager.carrierFrequency "5.890e9 Hz"
param *.connectionManager.pMax 100mW
param *.connectionManager.sat -94dBm
param *.connectionManager.sendDirect true
param *.manager.autoShutdown true
param *.manager.commandLine "\"sumo --remote-port $port --seed $seed --configuration-file $configFile\""
param *.manager.configFile "\"./sumocfg/freeway.sumo.cfg\""
param *.manager.host "\"localhost\""
param *.manager.margin 25
param *.manager.moduleDisplayString "\"\""
param *.manager.moduleName "\"node\""
param *.manager.moduleType "\"Car\""
param *.manager.updateInterval 0.01s
param *.node[*].appl.attackStart 32s
param *.node[*].appl.attackerType 1
param *.node[*].appl.simulationDuration "60 s"
param *.node[*].appl_type "\"SimplePlatooningApp\""
param *.node[*].helper.nCars 8
param *.node[*].helper.nLanes 1
param *.node[*].helper.platoonSize 8
param *.node[*].helper_type "\"PositionHelper\""
param *.node[*].mobility.x 0
param *.node[*].mobility.y 0
param *.node[*].mobility.z 1.895
param *.node[*].prot.attackStart 32s
param *.node[*].prot.attackerType 1
param *.node[*].prot.attackingNode 3
param *.node[*].prot.beaconingInterval 0.1s
param *.node[*].prot.fakeAcc "(1 == 4)"
param *.node[*].prot.fakePos "(1 == 2)"
param *.node[*].prot.fakeSpeed "(1 == 3)"
param *.node[*].prot.maliciousAcc "-30 mpss"
param *.node[*].prot.maliciousSpeed 150kmph
param *.node[*].prot.packetSize 200
param *.node[*].prot.priority 2
param *.node[*].prot.shiftX "7 m"
param *.node[*].prot.useControllerAcceleration true
param *.node[*].protocol_type "\"SimplePlatooningBeaconing\""
param *.node[*].scenario.accHeadway 0.1s
param *.node[*].scenario.caccC1 0.5
param *.node[*].scenario.caccOmegaN "0.2 Hz"
param *.node[*].scenario.caccSpacing 11m
param *.node[*].scenario.caccXi 1
param *.node[*].scenario.controller "\"CACC\""
param *.node[*].scenario.engineTau "0.5 s"
param *.node[*].scenario.leaderHeadway 1.2s
param *.node[*].scenario.leaderOscillationFrequency "0.2 Hz"
param *.node[*].scenario.leaderSpeed 150kmph
param *.node[*].scenario.oscillationAmplitude "10 kmph"
param *.node[*].scenario.ploegH 0.5s
param *.node[*].scenario.ploegKd 0.7
param *.node[*].scenario.ploegKp 0.2
param *.node[*].scenario.startOscillating "5 s"
param *.node[*].scenario.useRealisticEngine false
param *.node[*].scenario_type "\"SinusoidalScenario\""
param *.node[*].unicast.packetLossRate 0
param *.obstacles.debug false
param *.playgroundSizeX 65000m
param *.playgroundSizeY 25000m
param *.playgroundSizeZ 50m
param *.world.use2D false
param *.world.useTorus false

vector 0  scenario.node[0].appl  distance  ETV
vector 1  scenario.node[0].appl  relativeSpeed  ETV
vector 2  scenario.node[0].appl  nodeId  ETV
vector 6  scenario.node[0].appl  acceleration  ETV
vector 7  scenario.node[0].appl  controllerAcceleration  ETV
vector 3  scenario.node[0].appl  speed  ETV
vector 4  scenario.node[0].appl  posx  ETV
vector 5  scenario.node[0].appl  posy  ETV
vector 22  scenario.node[1].appl  distance  ETV
vector 23  scenario.node[1].appl  relativeSpeed  ETV
vector 24  scenario.node[1].appl  nodeId  ETV
vector 28  scenario.node[1].appl  acceleration  ETV
vector 29  scenario.node[1].appl  controllerAcceleration  ETV
vector 25  scenario.node[1].appl  speed  ETV
vector 26  scenario.node[1].appl  posx  ETV
vector 27  scenario.node[1].appl  posy  ETV
vector 44  scenario.node[2].appl  distance  ETV
vector 45  scenario.node[2].appl  relativeSpeed  ETV
vector 46  scenario.node[2].appl  nodeId  ETV
vector 50  scenario.node[2].appl  acceleration  ETV
vector 51  scenario.node[2].appl  controllerAcceleration  ETV
vector 47  scenario.node[2].appl  speed  ETV
vector 48  scenario.node[2].appl  posx  ETV
vector 49  scenario.node[2].appl  posy  ETV
vector 66  scenario.node[3].appl  distance  ETV
vector 67  scenario.node[3].appl  relativeSpeed  ETV
vector 68  scenario.node[3].appl  nodeId  ETV
vector 72  scenario.node[3].appl  acceleration  ETV
vector 73  scenario.node[3].appl  controllerAcceleration  ETV
vector 69  scenario.node[3].appl  speed  ETV
vector 70  scenario.node[3].appl  posx  ETV
vector 71  scenario.node[3].appl  posy  ETV
vector 88  scenario.node[4].appl  distance  ETV
vector 89  scenario.node[4].appl  relativeSpeed  ETV
vector 90  scenario.node[4].appl  nodeId  ETV
vector 94  scenario.node[4].appl  acceleration  ETV
vector 95  scenario.node[4].appl  controllerAcceleration  ETV
vector 91  scenario.node[4].appl  speed  ETV
vector 92  scenario.node[4].appl  posx  ETV
vector 93  scenario.node[4].appl  posy  ETV
vector 110  scenario.node[5].appl  distance  ETV
vector 111  scenario.node[5].appl  relativeSpeed  ETV
vector 112  scenario.node[5].appl  nodeId  ETV
vector 116  scenario.node[5].appl  acceleration  ETV
vector 117  scenario.node[5].appl  controllerAcceleration  ETV
vector 113  scenario.node[5].appl  speed  ETV
vector 114  scenario.node[5].appl  posx  ETV
vector 115  scenario.node[5].appl  posy  ETV
vector 132  scenario.node[6].appl  distance  ETV
vector 133  scenario.node[6].appl  relativeSpeed  ETV
vector 134  scenario.node[6].appl  nodeId  ETV
vector 138  scenario.node[6].appl  acceleration  ETV
vector 139  scenario.node[6].appl  controllerAcceleration  ETV
vector 135  scenario.node[6].appl  speed  ETV
vector 136  scenario.node[6].appl  posx  ETV
vector 137  scenario.node[6].appl  posy  ETV
vector 154  scenario.node[7].appl  distance  ETV
vector 155  scenario.node[7].appl  relativeSpeed  ETV
vector 156  scenario.node[7].appl  nodeId  ETV
vector 160  scenario.node[7].appl  acceleration  ETV
vector 161  scenario.node[7].appl  controllerAcceleration  ETV
vector 157  scenario.node[7].appl  speed  ETV
vector 158  scenario.node[7].appl  posx  ETV
vector 159  scenario.node[7].appl  posy  ETV
vector 58  scenario.node[2].prot  frontDelay  ETV
vector 56  scenario.node[2].prot  frontDelayId  ETV
vector 102  scenario.node[4].prot  frontDelay  ETV
vector 100  scenario.node[4].prot  frontDelayId  ETV
vector 146  scenario.node[6].prot  frontDelay  ETV
vector 144  scenario.node[6].prot  frontDelayId  ETV
vector 168  scenario.node[7].prot  frontDelay  ETV
vector 166  scenario.node[7].prot  frontDelayId  ETV
vector 124  scenario.node[5].prot  frontDelay  ETV
vector 122  scenario.node[5].prot  frontDelayId  ETV
vector 35  scenario.node[1].prot  leaderDelay  ETV
vector 33  scenario.node[1].prot  leaderDelayId  ETV
vector 36  scenario.node[1].prot  frontDelay  ETV
vector 34  scenario.node[1].prot  frontDelayId  ETV
vector 57  scenario.node[2].prot  leaderDelay  ETV
vector 55  scenario.node[2].prot  leaderDelayId  ETV
vector 79  scenario.node[3].prot  leaderDelay  ETV
vector 77  scenario.node[3].prot  leaderDelayId  ETV
vector 101  scenario.node[4].prot  leaderDelay  ETV
vector 99  scenario.node[4].prot  leaderDelayId  ETV
vector 123  scenario.node[5].prot  leaderDelay  ETV
vector 121  scenario.node[5].prot  leaderDelayId  ETV
vector 145  scenario.node[6].prot  leaderDelay  ETV
vector 143  scenario.node[6].prot  leaderDelayId  ETV
vector 167  scenario.node[7].prot  leaderDelay  ETV
vector 165  scenario.node[7].prot  leaderDelayId  ETV
vector 80  scenario.node[3].prot  frontDelay  ETV
vector 78  scenario.node[3].prot  frontDelayId  ETV
vector 8  scenario.node[0].prot  nodeId  ETV
vector 9  scenario.node[0].prot  busyTime  ETV
vector 10  scenario.node[0].prot  collisions  ETV
vector 30  scenario.node[1].prot  nodeId  ETV
vector 31  scenario.node[1].prot  busyTime  ETV
vector 32  scenario.node[1].prot  collisions  ETV
vector 52  scenario.node[2].prot  nodeId  ETV
vector 53  scenario.node[2].prot  busyTime  ETV
vector 54  scenario.node[2].prot  collisions  ETV
vector 74  scenario.node[3].prot  nodeId  ETV
vector 75  scenario.node[3].prot  busyTime  ETV
vector 76  scenario.node[3].prot  collisions  ETV
vector 96  scenario.node[4].prot  nodeId  ETV
vector 97  scenario.node[4].prot  busyTime  ETV
vector 98  scenario.node[4].prot  collisions  ETV
vector 118  scenario.node[5].prot  nodeId  ETV
vector 119  scenario.node[5].prot  busyTime  ETV
vector 120  scenario.node[5].prot  collisions  ETV
vector 140  scenario.node[6].prot  nodeId  ETV
vector 141  scenario.node[6].prot  busyTime  ETV
vector 142  scenario.node[6].prot  collisions  ETV
vector 162  scenario.node[7].prot  nodeId  ETV
vector 163  scenario.node[7].prot  busyTime  ETV
vector 164  scenario.node[7].prot  collisions  ETV
7	232	1.11	-1.264609664986e-06
7	788	1.21	-1.2370558053476e-06
7	1344	1.31	-1.1922643139428e-06
7	1900	1.41	-1.1341353030048e-06
7	2456	1.51	-1.0661075364737e-06
7	3012	1.61	-9.9117950469463e-07
7	3568	1.71	-9.1193474816009e-07
7	4124	1.81	-8.3057002342457e-07
7	4680	1.91	-7.4892560064654e-07
7	5244	2.01	-6.6851609403784e-07
7	5800	2.11	-5.9056183232542e-07
7	6356	2.21	-5.1602003736662e-07
7	6912	2.31	-4.4561458878434e-07
7	7468	2.41	-3.7986517753552e-07
7	8024	2.51	-3.1911461206846e-07
7	8580	2.61	-2.6355444049386e-07
7	9136	2.71	-2.1324864718508e-07
7	9692	2.81	-1.6815555881067e-07
7	10248	2.91	-1.2814749794643e-07
7	10812	3.01	-9.3028553749264e-08
7	11368	3.11	-6.255026363533e-08
7	11924	3.21	-3.6425589655664e-08
7	12480	3.31	-1.4340962195547e-08
7	13036	3.41	4.0332679418498e-09
7	13592	3.51	1.9034231968362e-08
7	14148	3.61	3.0998883460143e-08
7	14704	3.71	4.0258086642098e-08
7	15260	3.81	4.7131671010447e-08
7	15816	3.91	5.1925063360159e-08
7	16380	4.01	5.4926061920924e-08
7	16936	4.11	5.6402775783226e-08
7	17492	4.21	5.6602530662531e-08
7	18048	4.31	5.5751151251116e-08
7	18604	4.41	5.4052726738973e-08
7	19160	4.51	5.1689909241759e-08
7	19716	4.61	4.8824482234977e-08
7	20272	4.71	4.5598198994412e-08
7	20828	4.81	4.2133798672239e-08
7	21384	4.91	3.8536192903393e-08
7	21949	5.01	3.4893794520485e-08
7	22506	5.11	0.34814790229188
7	23063	5.21	0.68726938086839
7	23620	5.31	1.0064706392337
7	24177	5.41	1.2963311769431
7	24734	5.51	1.5
7	25291	5.61	1.5
7	25848	5.71	1.5
7	26405	5.81	1.5
7	26962	5.91	1.5
7	27527	6.01	1.5
7	28084	6.11	1.5
7	28641	6.21	1.5
7	29198	6.31	1.5
7	29755	6.41	1.5
7	30312	6.51	1.4919234166485
7	30869	6.61	1.2264993309071
7	31426	6.71	0.9230538423432
7	31983	6.81	0.58908102202894
7	32540	6.91	0.23235621850268
7	33105	7.01	-0.13919559587845
7	33662	7.11	-0.51762846369643
7	34219	7.21	-0.89509993758214
7	34776	7.31	-1.2639902868434
7	35333	7.41	-1.5
7	35890	7.51	-1.5
7	36447	7.61	-1.5
7	37004	7.71	-1.5
7	37561	7.81	-1.5
7	38118	7.91	-1.5
7	38683	8.01	-1.5
7	39240	8.11	-1.5
7	39797	8.21	-1.5
7	40354	8.31	-1.5
7	40911	8.41	-1.5
7	41468	8.51	-1.5
7	42025	8.61	-1.5
7	42582	8.71	-1.5
7	43139	8.81	-1.5
7	43696	8.91	-1.5
7	44261	9.01	-1.5
7	44818	9.11	-1.5
7	45375	9.21	-1.5
7	45932	9.31	-1.5
7	46489	9.41	-1.5
7	47046	9.51	-1.1784535903605
7	47603	9.61	-0.73985166412807
7	48160	9.71	-0.29046662052636
7	48717	9.81	0.1586820567595
7	49274	9.91	0.59737147696769
7	49839	10.01	1.0162504342412
7	50396	10.11	1.4069035499393
7	50953	10.21	1.5
7	51510	10.31	1.5
7	52067	10.41	1.5
7	52624	10.51	1.5
7	53181	10.61	1.5
7	53738	10.71	1.5
7	54295	10.81	1.5
7	54852	10.91	1.5
7	55417	11.01	1.5
7	55974	11.11	1.5
7	56531	11.21	1.5
7	57088	11.31	1.5
7	57645	11.41	1.5
7	58202	11.51	1.5
7	58759	11.61	1.5
7	59316	11.71	1.5
7	59873	11.81	1.5
7	60430	11.91	1.1420569523654
7	60995	12.01	0.73271074176932
7	61552	12.11	0.30763491705864
7	62109	12.21	-0.12290183397916
7	62666	12.31	-0.54917422862574
7	63223	12.41	-0.96209331714029
7	63780	12.51	-1.3532900275071
7	64337	12.61	-1.5
7	64894	12.71	-1.5
7	65451	12.81	-1.5
7	66008	12.91	-1.5
7	66573	13.01	-1.5
7	67130	13.11	-1.5
7	67687	13.21	-1.5
7	68244	13.31	-1.5
7	68801	13.41	-1.5
7	69358	13.51	-1.5
7	69915	13.61	-1.5
7	70472	13.71	-1.5
7	71029	13.81	-1.5
7	71586	13.91	-1.5
7	72151	14.01	-1.5
7	72708	14.11	-1.5
7	73265	14.21	-1.5
7	73822	14.31	-1.5
7	74379	14.41	-1.3008305793046
7	74936	14.51	-0.88835736019924
7	75493	14.61	-0.45792464373664
7	76050	14.71	-0.020297800469415
7	76607	14.81	0.41435934758473
7	77164	14.91	0.83657487485725
7	77729	15.01	1.2376491839042
7	78286	15.11	1.5
7	78843	15.21	1.5
7	79400	15.31	1.5
7	79957	15.41	1.5
7	80514	15.51	1.5
7	81071	15.61	1.5
7	81628	15.71	1.5
7	82185	15.81	1.5
7	82742	15.91	1.5
7	83307	16.01	1.5
7	83864	16.11	1.5
7	84421	16.21	1.5
7	84978	16.31	1.5
7	85535	16.41	1.5
7	86092	16.51	1.5
7	86649	16.61	1.5
7	87206	16.71	1.5
7	87763	16.81	1.5
7	88320	16.91	1.2451238477419
7	88885	17.01	0.83347870135727
7	89442	17.11	0.40470958877236
7	89999	17.21	-0.030598062215738
7	90556	17.31	-0.46243980386358
7	91113	17.41	-0.88148335304344
7	91670	17.51	-1.2791500631696
7	92227	17.61	-1.5
7	92784	17.71	-1.5
7	93341	17.81	-1.5
7	93898	17.91	-1.5
7	94463	18.01	-1.5
7	95020	18.11	-1.5
7	95577	18.21	-1.5
7	96134	18.31	-1.5
7	96691	18.41	-1.5
7	97248	18.51	-1.5
7	97805	18.61	-1.5
7	98362	18.71	-1.5
7	98919	18.81	-1.5
7	99476	18.91	-1.5
7	100041	19.01	-1.5
7	100598	19.11	-1.5
7	101155	19.21	-1.5
7	101712	19.31	-1.5
7	102269	19.41	-1.2657245815119
7	102826	19.51	-0.85377693481423
7	103383	19.61	-0.42439560038014
7	103940	19.71	0.011767371268903
7	104497	19.81	0.44464851836469
7	105054	19.91	0.86486384400589
7	105619	20.01	1.2637899041132
7	106176	20.11	1.5
7	106733	20.21	1.5
7	107290	20.31	1.5
7	107847	20.41	1.5
7	108404	20.51	1.5
7	108961	20.61	1.5
7	109518	20.71	1.5
7	110075	20.81	1.5
7	110632	20.91	1.5
7	111197	21.01	1.5
7	111754	21.11	1.5
7	112311	21.21	1.5
7	112868	21.31	1.5
7	113425	21.41	1.5
7	113982	21.51	1.5
7	114539	21.61	1.5
7	115096	21.71	1.5
7	115653	21.81	1.5
7	116210	21.91	1.2580915517757
7	116775	22.01	0.84625491634767
7	117332	22.11	0.41709956367446
7	117889	22.21	-0.01874716354331
7	118446	22.31	-0.45124369149482
7	119003	22.41	-0.87102520538662
7	119560	22.51	-1.2694848794604
7	120117	22.61	-1.5
7	120674	22.71	-1.5
7	121231	22.81	-1.5
7	121788	22.91	-1.5
7	122353	23.01	-1.5
7	122910	23.11	-1.5
7	123467	23.21	-1.5
7	124024	23.31	-1.5
7	124581	23.41	-1.5
7	125138	23.51	-1.5
7	125695	23.61	-1.5
7	126252	23.71	-1.5
7	126809	23.81	-1.5
7	127366	23.91	-1.5
7	127931	24.01	-1.5
7	128488	24.11	-1.5
7	129045	24.21	-1.5
7	129602	24.31	-1.5
7	130159	24.41	-1.2609239651136
7	130716	24.51	-0.84904615684721
7	131273	24.61	-0.41980696481297
7	131830	24.71	0.0161570994443
7	132387	24.81	0.44879633965842
7	132944	24.91	0.86873882266714
7	133509	25.01	1.267371555718
7	134066	25.11	1.5
7	134623	25.21	1.5
7	135180	25.31	1.5
7	135737	25.41	1.5
7	136294	25.51	1.5
7	136851	25.61	1.5
7	137408	25.71	1.5
7	137965	25.81	1.5
7	138522	25.91	1.5
7	139087	26.01	1.5
7	139644	26.11	1.5
7	140201	26.21	1.5
7	140758	26.31	1.5
7	141315	26.41	1.5
7	141872	26.51	1.5
7	142429	26.61	1.5
7	142986	26.71	1.5
7	143543	26.81	1.5
7	144100	26.91	1.259872851865
7	144665	27.01	0.84801032251606
7	145222	27.11	0.41880224309333
7	145779	27.21	-0.017118277439927
7	146336	27.31	-0.449704557082
7	146893	27.41	-0.86958730431672
7	147450	27.51	-1.2681558149805
7	148007	27.61	-1.5
7	148564	27.71	-1.5
7	149121	27.81	-1.5
7	149678	27.91	-1.5
7	150243	28.01	-1.5
7	150800	28.11	-1.5
7	151357	28.21	-1.5
7	151914	28.31	-1.5
7	152471	28.41	-1.5
7	153028	28.51	-1.5
7	153585	28.61	-1.5
7	154142	28.71	-1.5
7	154699	28.81	-1.5
7	155256	28.91	-1.5
7	155821	29.01	-1.5
7	156378	29.11	-1.5
7	156935	29.21	-1.5
7	157492	29.31	-1.5
7	158049	29.41	-1.2602629232498
7	158606	29.51	-0.84839472385467
7	159163	29.61	-0.41917509845132
7	159720	29.71	0.016761581288272
7	160277	29.81	0.44936751475921
7	160834	29.91	0.8692724301223
7	161399	30.01	1.2678647739114
7	161956	30.11	1.5
7	162513	30.21	1.5
7	163070	30.31	1.5
7	163627	30.41	1.5
7	164184	30.51	1.5
7	164741	30.61	1.5
7	165298	30.71	1.5
7	165855	30.81	1.5
7	166412	30.91	1.5
7	166977	31.01	1.5
7	167534	31.11	1.5
7	168091	31.21	1.5
7	168648	31.31	1.5
7	169205	31.41	1.5
7	169762	31.51	1.5
7	170319	31.61	1.5
7	170876	31.71	1.5
7	171433	31.81	1.5
7	171990	31.91	1.2601181665227
7	172555	32.01	0.84825207129943
7	173112	32.11	0.41903673064581
7	173669	32.21	-0.016893952361286
7	174226	32.31	-0.44949259223436
7	174783	32.41	-0.86938928093497
7	175340	32.51	-1.2679727801759
7	175897	32.61	-1.5
7	176454	32.71	-1.5
7	177011	32.81	-1.5
7	177568	32.91	-1.5
7	178133	33.01	-1.5
7	178690	33.11	-1.5
7	179247	33.21	-1.5
7	179804	33.31	-1.5
7	180361	33.41	-1.5
7	180918	33.51	-1.5
7	181475	33.61	-1.5
7	182032	33.71	-1.5
7	182589	33.81	-1.5
7	183146	33.91	-1.5
7	183711	34.01	-1.5
7	184268	34.11	-1.5
7	184825	34.21	-1.5
7	185382	34.31	-1.5
7	185939	34.41	-1.2601718862024
7	186496	34.51	-0.8483050101143
7	187053	34.61	-0.41908807937658
7	187610	34.71	0.01684482903692
7	188167	34.81	0.44944617558719
7	188724	34.91	0.86934591722818
7	189289	35.01	1.2679326987088
7	189846	35.11	1.5
7	190403	35.21	1.5
7	190960	35.31	1.5
7	191517	35.41	1.5
7	192074	35.51	1.5
7	192631	35.61	1.5
7	193188	35.71	1.5
7	193745	35.81	1.5
7	194302	35.91	1.5
7	194867	36.01	1.5
7	195424	36.11	1.5
7	195981	36.21	1.5
7	196538	36.31	1.5
7	197095	36.41	1.5
6	232	1.11	-1.8587371641843e-07
6	788	1.21	-3.7715039979958e-07
6	1344	1.31	-5.2730015909219e-07
6	1900	1.41	-6.4101826069418e-07
6	2456	1.51	-7.2280812446479e-07
6	3012	1.61	-7.7694011224594e-07
6	3568	1.71	-8.0741315855448e-07
6	4124	1.81	-8.1792990158647e-07
6	4680	1.91	-8.1188602507609e-07
6	5244	2.01	-7.9236670558203e-07
6	5800	2.11	-7.6214163868826e-07
6	6356	2.21	-7.2367640768789e-07
6	6912	2.31	-6.7914172063865e-07
6	7468	2.41	-6.3042691067494e-07
6	8024	2.51	-5.791562784907e-07
6	8580	2.61	-5.2670969807878e-07
6	9136	2.71	-4.7423895921384e-07
6	9692	2.81	-4.226883731917e-07
6	10248	2.91	-3.7281679965417e-07
6	10812	3.01	-3.2521825232834e-07
6	11368	3.11	-2.8033753096679e-07
6	11924	3.21	-2.3849224817241e-07
6	12480	3.31	-1.9988561916762e-07
6	13036	3.41	-1.6463133079014e-07
6	13592	3.51	-1.3275709420668e-07
6	14148	3.61	-1.0422880336591e-07
6	14704	3.71	-7.8954798254927e-08
6	15260	3.81	-5.6805049553077e-08
6	15816	3.91	-3.7617553516611e-08
6	16380	4.01	-2.1201884692346e-08
6	16936	4.11	-7.354117315117e-09
6	17492	4.21	4.1374903503311e-09
6	18048	4.31	1.3491074923877e-08
6	18604	4.41	2.0921930854456e-08
6	19160	4.51	2.6641799877325e-08
6	19716	4.61	3.0856028843118e-08
6	20272	4.71	3.3759306461434e-08
6	20828	4.81	3.5534952758098e-08
6	21384	4.91	3.6354919075166e-08
6	21949	5.01	3.6375524814503e-08
6	22506	5.11	0.0068264645847194
6	23063	5.21	0.074594848256737
6	23620	5.31	0.19005135781356
6	24177	5.41	0.34050273679327
6	24734	5.51	0.51301639903159
6	25291	5.61	0.69025459358016
6	25848	5.71	0.8357267325124
6	26405	5.81	0.95506455436478
6	26962	5.91	1.0529631336311
6	27527	6.01	1.1332740666944
6	28084	6.11	1.1991570040927
6	28641	6.21	1.2532039597787
6	29198	6.31	1.2975412879882
6	29755	6.41	1.3339133398063
6	30312	6.51	1.3635927262982
6	30869	6.61	1.370205363024
6	31426	6.71	1.3272611941339
6	31983	6.81	1.237381093641
6	32540	6.91	1.1040433769786
6	33105	7.01	0.9314709214955
6	33662	7.11	0.72451590696545
6	34219	7.21	0.48854318469935
6	34776	7.31	0.22931329740459
6	35333	7.41	-0.044839397355645
6	35890	7.51	-0.30626147357466
6	36447	7.61	-0.52071862935179
6	37004	7.71	-0.69664819248914
6	37561	7.81	-0.84097171050672
6	38118	7.91	-0.95936726314534
6	38683	8.01	-1.0564928534642
6	39240	8.11	-1.1361696663563
6	39797	8.21	-1.2015324043531
6	40354	8.31	-1.255152615343
6	40911	8.41	-1.299139864269
6	41468	8.51	-1.3352247291408
6	42025	8.61	-1.3648268866902
6	42582	8.71	-1.3891109663092
6	43139	8.81	-1.4090323697367
6	43696	8.91	-1.4253748591699
6	44261	9.01	-1.4387813925914
6	44818	9.11	-1.4497794194909
6	45375	9.21	-1.4588016321618
6	45932	9.31	-1.466202988987
6	46489	9.41	-1.4722746794739
6	47046	9.51	-1.469624914661
6	47603	9.61	-1.3967850638842
6	48160	9.71	-1.2587757640922
6	48717	9.81	-1.0660952217464
6	49274	9.91	-0.82923335013376
6	49839	10.01	-0.55852907828324
6	50396	10.11	-0.26404116063858
6	50953	10.21	0.039432698787323
6	51510	10.31	0.30182609759564
6	52067	10.41	0.51708007620732
6	52624	10.51	0.69366331160268
6	53181	10.61	0.83852306854624
6	53738	10.71	0.95735852387477
6	54295	10.81	1.0548449876183
6	54852	10.91	1.1348178424115
6	55417	11.01	1.2004234378772
6	55974	11.11	1.2542428765791
6	56531	11.21	1.2983935616198
6	57088	11.31	1.3346125010308
6	57645	11.41	1.3643246463992
6	58202	11.51	1.3886989543394
6	58759	11.61	1.4086943764177
6	59316	11.71	1.425097586926
6	59873	11.81	1.4385539327783
6	60430	11.91	1.434562737289
6	60995	12.01	1.3623449188863
6	61552	12.11	1.229987565462
6	62109	12.21	1.0461448397947
6	62666	12.31	0.81967864250814
6	63223	12.41	0.55952045906622
6	63780	12.51	0.27454262951352
6	64337	12.61	-0.022341644856283
6	64894	12.71	-0.28780548056062
6	65451	12.81	-0.50557828686024
6	66008	12.91	-0.68422783826705
6	66573	13.01	-0.83078269403671
6	67130	13.11	-0.95100872080636
6	67687	13.21	-1.049635937467
6	68244	13.31	-1.1305446069755
6	68801	13.41	-1.1969178964527
6	69358	13.51	-1.2513671116331
6	69915	13.61	-1.2960344327361
6	70472	13.71	-1.3326771936626
6	71029	13.81	-1.3627370202911
6	71586	13.91	-1.3873965479604
6	72151	14.01	-1.4076259495589
6	72708	14.11	-1.4242211047687
6	73265	14.21	-1.4378349121301
6	73822	14.31	-1.4490029758548
6	74379	14.41	-1.4542593951845
6	74936	14.51	-1.4067454390002
6	75493	14.61	-1.2938574955257
6	76050	14.71	-1.1248409052179
6	76607	14.81	-0.90912582141769
6	77164	14.91	-0.65618298375156
6	77729	15.01	-0.37539052552589
6	78286	15.11	-0.078063005077667
6	78843	15.21	0.20543869668828
6	79400	15.31	0.43800883574505
6	79957	15.41	0.62879735392087
6	80514	15.51	0.78531039044307
6	81071	15.61	0.91370559386164
6	81628	15.71	1.0190343806975
6	82185	15.81	1.1054406719069
6	82742	15.91	1.1763239259999
6	83307	16.01	1.2344728829831
6	83864	16.11	1.2821752809849
6	84421	16.21	1.3213078620858
6	84978	16.31	1.353410208462
6	85535	16.41	1.3797453137336
6	86092	16.51	1.4013492725695
6	86649	16.61	1.4190720434712
6	87206	16.71	1.4336108884486
6	87763	16.81	1.4455378052077
6	88320	16.91	1.4502949065331
6	88885	17.01	1.3935559567543
6	89442	17.11	1.2733368701461
6	89999	17.21	1.0986742440551
6	90556	17.31	0.8787967659174
6	91113	17.41	0.6229832927616
6	91670	17.51	0.34043137853601
6	92227	17.61	0.043031849082098
6	92784	17.71	-0.23417644595227
6	93341	17.81	-0.46158379949475
6	93898	17.91	-0.64813703535265
6	94463	18.01	-0.80117566522517
6	95020	18.11	-0.92672064505592
6	95577	18.21	-1.0297112558185
6	96134	18.31	-1.114199428261
6	96691	18.41	-1.1835091568827
6	97248	18.51	-1.2403672749222
6	97805	18.61	-1.2870107353905
6	98362	18.71	-1.3252746188861
6	98919	18.81	-1.3566643306582
6	99476	18.91	-1.3824148273436
6	100041	19.01	-1.4035392035204
6	100598	19.11	-1.420868549603
6	101155	19.21	-1.4350846492
6	101712	19.31	-1.4467468023348
6	102269	19.41	-1.4517201941764
6	102826	19.51	-1.3984004323881
6	103383	19.61	-1.2808993810083
6	103940	19.71	-1.1083308503771
6	104497	19.81	-0.88999806036725
6	105054	19.91	-0.63525086466711
6	105619	20.01	-0.35335363991251
6	106176	20.11	-0.055983891306255
6	106733	20.21	0.22355126013451
6	107290	20.31	0.45286744637352
6	107847	20.41	0.64098658988883
6	108404	20.51	0.7953098094454
6	108961	20.61	0.92190860023962
6	109518	20.71	1.025763703035
6	110075	20.81	1.110961060045
6	110632	20.91	1.1808525670219
6	111197	21.01	1.2381879459468
6	111754	21.11	1.2852229265718
6	112311	21.21	1.3238079929607
6	112868	21.31	1.3554611865736
6	113425	21.41	1.3814278301389
6	113982	21.51	1.4027295220423
6	114539	21.61	1.4202043287803
6	115096	21.71	1.4345397567773
6	115653	21.81	1.4462998007623
6	116210	21.91	1.4512038299465
6	116775	22.01	1.3966149622043
6	117332	22.11	1.2781048258539
6	117889	22.21	1.104758616826
6	118446	22.31	0.88585193074024
6	119003	22.41	0.63070830476164
6	119560	22.51	0.34856734381066
6	120117	22.61	0.0511856543703
6	120674	22.71	-0.2274874856468
6	121231	22.81	-0.45609652228009
6	121788	22.91	-0.64363555681837
6	122353	23.01	-0.79748288496049
6	122910	23.11	-0.9236912790449
6	123467	23.21	-1.0272261205607
6	124024	23.31	-1.1121607517772
6	124581	23.41	-1.1818367320956
6	125138	23.51	-1.2389953040916
6	125695	23.61	-1.2858852414524
6	126252	23.71	-1.3243513218463
6	126809	23.81	-1.355906905502
6	127366	23.91	-1.3817934749042
6	127931	24.01	-1.403029478103
6	128488	24.11	-1.4204503972238
6	129045	24.21	-1.4347416186069
6	129602	24.31	-1.4464653977718
6	130159	24.41	-1.4513952146871
6	130716	24.51	-1.397277320676
6	131273	24.61	-1.2791416668563
6	131830	24.71	-1.1060840673032
6	132387	24.81	-0.88739036841687
6	132944	24.91	-0.63239387292811
6	133509	25.01	-0.35034337811126
6	134066	25.11	-0.052966136912147
6	134623	25.21	0.22602686982154
6	135180	25.31	0.45489830857193
6	135737	25.41	0.64265260423966
6	136294	25.51	0.7966765214853
6	136851	25.61	0.92302978013734
6	137408	25.71	1.0266834610576
6	137965	25.81	1.1117155819754
6	138522	25.91	1.1814715378058
6	139087	26.01	1.2386957175771
6	139644	26.11	1.2856394761641
6	140201	26.21	1.3241497087101
6	140758	26.31	1.3557415125085
6	141315	26.41	1.3816577950429
6	141872	26.51	1.4029181733591
6	142429	26.61	1.4203590885664
6	142986	26.71	1.4346667137048
6	143543	26.81	1.4464039496623
6	144100	26.91	1.4513241957715
6	144665	27.01	1.3970315218245
6	145222	27.11	1.2787568961947
6	145779	27.21	1.1055921925461
6	146336	27.31	0.8868194531928
6	146893	27.41	0.63176835684402
6	147450	27.51	0.34968428947408
6	148007	27.61	0.052305397196051
6	148564	27.71	-0.22656890652399
6	149121	27.81	-0.45534296745871
6	149678	27.91	-0.64301737940156
6	150243	28.01	-0.79697576417033
6	150800	28.11	-0.92327526336575
6	151357	28.21	-1.0268848428062
6	151914	28.31	-1.1118807851517
6	152471	28.41	-1.1816070619503
6	153028	28.51	-1.2388068945782
6	153585	28.61	-1.2857306800278
6	154142	28.71	-1.3242245276466
6	154699	28.81	-1.3558028900952
6	155256	28.91	-1.3817081460417
6	155821	29.01	-1.4029594787168
6	156378	29.11	-1.4203929733462
6	156935	29.21	-1.4346945110262
6	157492	29.31	-1.446426753148
6	158049	29.41	-1.4513505510308
6	158606	29.51	-1.3971227384744
6	159163	29.61	-1.2788996857282
6	159720	29.71	-1.1057747287524
6	160277	29.81	-0.88703132157306
6	160834	29.91	-0.63200048778214
6	161399	30.01	-0.34992887929945
6	161956	30.11	-0.052550599747292
6	162513	30.21	0.22636775502605
6	163070	30.31	0.45517795316883
6	163627	30.41	0.64288201020943
6	164184	30.51	0.79686471428317
6	164741	30.61	0.92318416377992
6	165298	30.71	1.0268101094155
6	165855	30.81	1.1118194777403
6	166412	30.91	1.181556768519
6	166977	31.01	1.2387656364474
6	167534	31.11	1.2856968339904
6	168091	31.21	1.3241967621056
6	168648	31.31	1.3557801126808
6	169205	31.41	1.3816894606293
6	169762	31.51	1.4029441501705
6	170319	31.61	1.4203803985993
6	170876	31.71	1.434684195354
6	171433	31.81	1.4464182907048
6	171990	31.91	1.4513407705138
6	172555	32.01	1.3970888876891
6	173112	32.11	1.2788466960821
6	173669	32.21	1.1057069889901
6	174226	32.31	0.88695269654835
6	174783	32.41	0.63191434325702
6	175340	32.51	0.3498381112415
6	175897	32.61	0.052459604304289
6	176454	32.71	-0.22644240298533
6	177011	32.81	-0.45523919049515
6	177568	32.91	-0.64293224614715
6	178133	33.01	-0.79690592524955
6	178690	33.11	-0.92321797112547
6	179247	33.21	-1.0268378432137
6	179804	33.31	-1.1118422291148
6	180361	33.41	-1.1815754325717
6	180918	33.51	-1.2387809474724
6	181475	33.61	-1.2857093943644
6	182032	33.71	-1.3242070659885
6	182589	33.81	-1.3557885654535
6	183146	33.91	-1.3816963948479
6	183711	34.01	-1.4029498386442
6	184268	34.11	-1.4203850651299
6	184825	34.21	-1.4346880235344
6	185382	34.31	-1.4464214311445
6	185939	34.41	-1.4513444000933
6	186496	34.51	-1.3971014498217
6	187053	34.61	-1.2788663607076
6	187610	34.71	-1.1057321274301
6	188167	34.81	-0.88698187454312
6	188724	34.91	-0.63194631176131
6	189289	35.01	-0.34987179555372
6	189846	35.11	-0.052493373000573
6	190403	35.21	0.22641470089155
6	190960	35.31	0.45521646513009
6	191517	35.41	0.64291360343205
6	192074	35.51	0.79689063173021
6	192631	35.61	0.92320542511359
6	193188	35.71	1.0268275511145
6	193745	35.81	1.1118337860083
6	194302	35.91	1.1815685062835
6	194867	36.01	1.2387752655023
6	195424	36.11	1.2857047331693
6	195981	36.21	1.3242032421843
6	196538	36.31	1.3557854286027
6	197095	36.41	1.3816938215371
5	232	1.11	36.55
5	788	1.21	36.55
5	1344	1.31	36.55
5	1900	1.41	36.55
5	2456	1.51	36.55
5	3012	1.61	36.55
5	3568	1.71	36.55
5	4124	1.81	36.55
5	4680	1.91	36.55
5	5244	2.01	36.55
5	5800	2.11	36.55
5	6356	2.21	36.55
5	6912	2.31	36.55
5	7468	2.41	36.55
5	8024	2.51	36.55
5	8580	2.61	36.55
5	9136	2.71	36.55
5	9692	2.81	36.55
5	10248	2.91	36.55
5	10812	3.01	36.55
5	11368	3.11	36.55
5	11924	3.21	36.55
5	12480	3.31	36.55
5	13036	3.41	36.55
5	13592	3.51	36.55
5	14148	3.61	36.55
5	14704	3.71	36.55
5	15260	3.81	36.55
5	15816	3.91	36.55
5	16380	4.01	36.55
5	16936	4.11	36.55
5	17492	4.21	36.55
5	18048	4.31	36.55
5	18604	4.41	36.55
5	19160	4.51	36.55
5	19716	4.61	36.55
5	20272	4.71	36.55
5	20828	4.81	36.55
5	21384	4.91	36.55
5	21949	5.01	36.55
5	22506	5.11	36.55
5	23063	5.21	36.55
5	23620	5.31	36.55
5	24177	5.41	36.55
5	24734	5.51	36.55
5	25291	5.61	36.55
5	25848	5.71	36.55
5	26405	5.81	36.55
5	26962	5.91	36.55
5	27527	6.01	36.55
5	28084	6.11	36.55
5	28641	6.21	36.55
5	29198	6.31	36.55
5	29755	6.41	36.55
5	30312	6.51	36.55
5	30869	6.61	36.55
5	31426	6.71	36.55
5	31983	6.81	36.55
5	32540	6.91	36.55
5	33105	7.01	36.55
5	33662	7.11	36.55
5	34219	7.21	36.55
5	34776	7.31	36.55
5	35333	7.41	36.55
5	35890	7.51	36.55
5	36447	7.61	36.55
5	37004	7.71	36.55
5	37561	7.81	36.55
5	38118	7.91	36.55
5	38683	8.01	36.55
5	39240	8.11	36.55
5	39797	8.21	36.55
5	40354	8.31	36.55
5	40911	8.41	36.55
5	41468	8.51	36.55
5	42025	8.61	36.55
5	42582	8.71	36.55
5	43139	8.81	36.55
5	43696	8.91	36.55
5	44261	9.01	36.55
5	44818	9.11	36.55
5	45375	9.21	36.55
5	45932	9.31	36.55
5	46489	9.41	36.55
5	47046	9.51	36.55
5	47603	9.61	36.55
5	48160	9.71	36.55
5	48717	9.81	36.55
5	49274	9.91	36.55
5	49839	10.01	36.55
5	50396	10.11	36.55
5	50953	10.21	36.55
5	51510	10.31	36.55
5	52067	10.41	36.55
5	52624	10.51	36.55
5	53181	10.61	36.55
5	53738	10.71	36.55
5	54295	10.81	36.55
5	54852	10.91	36.55
5	55417	11.01	36.55
5	55974	11.11	36.55
5	56531	11.21	36.55
5	57088	11.31	36.55
5	57645	11.41	36.55
5	58202	11.51	36.55
5	58759	11.61	36.55
5	59316	11.71	36.55
5	59873	11.81	36.55
5	60430	11.91	36.55
5	60995	12.01	36.55
5	61552	12.11	36.55
5	62109	12.21	36.55
5	62666	12.31	36.55
5	63223	12.41	36.55
5	63780	12.51	36.55
5	64337	12.61	36.55
5	64894	12.71	36.55
5	65451	12.81	36.55
5	66008	12.91	36.55
5	66573	13.01	36.55
5	67130	13.11	36.55
5	67687	13.21	36.55
5	68244	13.31	36.55
5	68801	13.41	36.55
5	69358	13.51	36.55
5	69915	13.61	36.55
5	70472	13.71	36.55
5	71029	13.81	36.55
5	71586	13.91	36.55
5	72151	14.01	36.55
5	72708	14.11	36.55
5	73265	14.21	36.55
5	73822	14.31	36.55
5	74379	14.41	36.55
5	74936	14.51	36.55
5	75493	14.61	36.55
5	76050	14.71	36.55
5	76607	14.81	36.55
5	77164	14.91	36.55
5	77729	15.01	36.55
5	78286	15.11	36.55
5	78843	15.21	36.55
5	79400	15.31	36.55
5	79957	15.41	36.55
5	80514	15.51	36.55
5	81071	15.61	36.55
5	81628	15.71	36.55
5	82185	15.81	36.55
5	82742	15.91	36.55
5	83307	16.01	36.55
5	83864	16.11	36.55
5	84421	16.21	36.55
5	84978	16.31	36.55
5	85535	16.41	36.55
5	86092	16.51	36.55
5	86649	16.61	36.55
5	87206	16.71	36.55
5	87763	16.81	36.55
5	88320	16.91	36.55
5	88885	17.01	36.55
5	89442	17.11	36.55
5	89999	17.21	36.55
5	90556	17.31	36.55
5	91113	17.41	36.55
5	91670	17.51	36.55
5	92227	17.61	36.55
5	92784	17.71	36.55
5	93341	17.81	36.55
5	93898	17.91	36.55
5	94463	18.01	36.55
5	95020	18.11	36.55
5	95577	18.21	36.55
5	96134	18.31	36.55
5	96691	18.41	36.55
5	97248	18.51	36.55
5	97805	18.61	36.55
5	98362	18.71	36.55
5	98919	18.81	36.55
5	99476	18.91	36.55
5	100041	19.01	36.55
5	100598	19.11	36.55
5	101155	19.21	36.55
5	101712	19.31	36.55
5	102269	19.41	36.55
5	102826	19.51	36.55
5	103383	19.61	36.55
5	103940	19.71	36.55
5	104497	19.81	36.55
5	105054	19.91	36.55
5	105619	20.01	36.55
5	106176	20.11	36.55
5	106733	20.21	36.55
5	107290	20.31	36.55
5	107847	20.41	36.55
5	108404	20.51	36.55
5	108961	20.61	36.55
5	109518	20.71	36.55
5	110075	20.81	36.55
5	110632	20.91	36.55
5	111197	21.01	36.55
5	111754	21.11	36.55
5	112311	21.21	36.55
5	112868	21.31	36.55
5	113425	21.41	36.55
5	113982	21.51	36.55
5	114539	21.61	36.55
5	115096	21.71	36.55
5	115653	21.81	36.55
5	116210	21.91	36.55
5	116775	22.01	36.55
5	117332	22.11	36.55
5	117889	22.21	36.55
5	118446	22.31	36.55
5	119003	22.41	36.55
5	119560	22.51	36.55
5	120117	22.61	36.55
5	120674	22.71	36.55
5	121231	22.81	36.55
5	121788	22.91	36.55
5	122353	23.01	36.55
5	122910	23.11	36.55
5	123467	23.21	36.55
5	124024	23.31	36.55
5	124581	23.41	36.55
5	125138	23.51	36.55
5	125695	23.61	36.55
5	126252	23.71	36.55
5	126809	23.81	36.55
5	127366	23.91	36.55
5	127931	24.01	36.55
5	128488	24.11	36.55
5	129045	24.21	36.55
5	129602	24.31	36.55
5	130159	24.41	36.55
5	130716	24.51	36.55
5	131273	24.61	36.55
5	131830	24.71	36.55
5	132387	24.81	36.55
5	132944	24.91	36.55
5	133509	25.01	36.55
5	134066	25.11	36.55
5	134623	25.21	36.55
5	135180	25.31	36.55
5	135737	25.41	36.55
5	136294	25.51	36.55
5	136851	25.61	36.55
5	137408	25.71	36.55
5	137965	25.81	36.55
5	138522	25.91	36.55
5	139087	26.01	36.55
5	139644	26.11	36.55
5	140201	26.21	36.55
5	140758	26.31	36.55
5	141315	26.41	36.55
5	141872	26.51	36.55
5	142429	26.61	36.55
5	142986	26.71	36.55
5	143543	26.81	36.55
5	144100	26.91	36.55
5	144665	27.01	36.55
5	145222	27.11	36.55
5	145779	27.21	36.55
5	146336	27.31	36.55
5	146893	27.41	36.55
5	147450	27.51	36.55
5	148007	27.61	36.55
5	148564	27.71	36.55
5	149121	27.81	36.55
5	149678	27.91	36.55
5	150243	28.01	36.55
5	150800	28.11	36.55
5	151357	28.21	36.55
5	151914	28.31	36.55
5	152471	28.41	36.55
5	153028	28.51	36.55
5	153585	28.61	36.55
5	154142	28.71	36.55
5	154699	28.81	36.55
5	155256	28.91	36.55
5	155821	29.01	36.55
5	156378	29.11	36.55
5	156935	29.21	36.55
5	157492	29.31	36.55
5	158049	29.41	36.55
5	158606	29.51	36.55
5	159163	29.61	36.55
5	159720	29.71	36.55
5	160277	29.81	36.55
5	160834	29.91	36.55
5	161399	30.01	36.55
5	161956	30.11	36.55
5	162513	30.21	36.55
5	163070	30.31	36.55
5	163627	30.41	36.55
5	164184	30.51	36.55
5	164741	30.61	36.55
5	165298	30.71	36.55
5	165855	30.81	36.55
5	166412	30.91	36.55
5	166977	31.01	36.55
5	167534	31.11	36.55
5	168091	31.21	36.55
5	168648	31.31	36.55
5	169205	31.41	36.55
5	169762	31.51	36.55
5	170319	31.61	36.55
5	170876	31.71	36.55
5	171433	31.81	36.55
5	171990	31.91	36.55
5	172555	32.01	36.55
5	173112	32.11	36.55
5	173669	32.21	36.55
5	174226	32.31	36.55
5	174783	32.41	36.55
5	175340	32.51	36.55
5	175897	32.61	36.55
5	176454	32.71	36.55
5	177011	32.81	36.55
5	177568	32.91	36.55
5	178133	33.01	36.55
5	178690	33.11	36.55
5	179247	33.21	36.55
5	179804	33.31	36.55
5	180361	33.41	36.55
5	180918	33.51	36.55
5	181475	33.61	36.55
5	182032	33.71	36.55
5	182589	33.81	36.55
5	183146	33.91	36.55
5	183711	34.01	36.55
5	184268	34.11	36.55
5	184825	34.21	36.55
5	185382	34.31	36.55
5	185939	34.41	36.55
5	186496	34.51	36.55
5	187053	34.61	36.55
5	187610	34.71	36.55
5	188167	34.81	36.55
5	188724	34.91	36.55
5	189289	35.01	36.55
5	189846	35.11	36.55
5	190403	35.21	36.55
5	190960	35.31	36.55
5	191517	35.41	36.55
5	192074	35.51	36.55
5	192631	35.61	36.55
5	193188	35.71	36.55
5	193745	35.81	36.55
5	194302	35.91	36.55
5	194867	36.01	36.55
5	195424	36.11	36.55
5	195981	36.21	36.55
5	196538	36.31	36.55
5	197095	36.41	36.55
4	232	1.11	141.77205924948
4	788	1.21	145.93872604066
4	1344	1.31	150.10539282777
4	1900	1.41	154.27205960937
4	2456	1.51	158.43872638441
4	3012	1.61	162.6053931521
4	3568	1.71	166.77205991196
4	4124	1.81	170.93872666372
4	4680	1.91	175.10539340732
4	5244	2.01	179.27206014284
4	5800	2.11	183.43872687049
4	6356	2.21	187.6053935906
4	6912	2.31	191.77206030356
4	7468	2.41	195.93872700983
4	8024	2.51	200.10539370989
4	8580	2.61	204.27206040427
4	9136	2.71	208.43872709349
4	9692	2.81	212.60539377806
4	10248	2.91	216.77206045851
4	10812	3.01	220.93872713533
4	11368	3.11	225.10539380899
4	11924	3.21	229.27206047992
4	12480	3.31	233.43872714855
4	13036	3.41	237.60539381525
4	13592	3.51	241.77206048037
4	14148	3.61	245.93872714422
4	14704	3.71	250.10539380708
4	15260	3.81	254.27206046919
4	15816	3.91	258.43872713077
4	16380	4.01	262.60539379201
4	16936	4.11	266.77206045306
4	17492	4.21	270.93872711407
4	18048	4.31	275.10539377513
4	18604	4.41	279.27206043634
4	19160	4.51	283.43872709778
4	19716	4.61	287.60539375949
4	20272	4.71	291.77206042151
4	20828	4.81	295.93872708388
4	21384	4.91	300.1053937466
4	21949	5.01	304.27206040969
4	22506	5.11	308.43872843842
4	23063	5.21	312.60562296922
4	23620	5.31	316.77351759374
4	24177	5.41	320.94363693962
4	24734	5.51	325.11753099055
4	25291	5.61	329.29693460893
4	25848	5.71	333.48353327924
4	26405	5.81	337.67872904185
4	26962	5.91	341.88367219004
4	27527	6.01	346.0993063649
4	28084	6.11	350.32640568083
4	28641	6.21	354.56560518123
4	29198	6.31	358.81742582291
4	29755	6.41	363.08229497187
4	30312	6.51	367.36056318542
4	30869	6.61	371.65248821348
4	31426	6.71	375.95802362311
4	31983	6.81	380.27664289775
4	32540	6.91	384.60735726108
4	33105	7.01	388.94875200029
4	33662	7.11	393.29903000089
4	34219	7.21	397.65606133691
4	34776	7.31	402.01743774902
4	35333	7.41	406.38053130025
4	35890	7.51	410.74262906335
4	36447	7.61	415.10123323196
4	37004	7.71	419.45427666076
4	37561	7.81	423.80006357062
4	38118	7.91	428.137202832
4	38683	8.01	432.46455323414
4	39240	8.11	436.78117858676
4	39797	8.21	441.08631088772
4	40354	8.31	445.3793201078
4	40911	8.41	449.65968940359
4	41468	8.51	453.92699478347
4	42025	8.61	458.18088842664
4	42582	8.71	462.42108499891
4	43139	8.81	466.64735042684
4	43696	8.91	470.85949268871
4	44261	9.01	475.05735425979
4	44818	9.11	479.24080591497
4	45375	9.21	483.40974164464
4	45932	9.31	487.56407448399
4	46489	9.41	491.7037330916
4	47046	9.51	495.82866120544
4	47603	9.61	499.93905412591
4	48160	9.71	504.03577317431
4	48717	9.81	508.12031011305
4	49274	9.91	512.19468205519
4	49839	10.01	516.26132684021
4	50396	10.11	520.32300018496
4	50953	10.21	524.3826748487
4	51510	10.31	528.44327904535
4	52067	10.41	532.50733408404
4	52624	10.51	536.57691479065
4	53181	10.61	540.65372324504
4	53738	10.71	544.73915574553
4	54295	10.81	548.83435774309
4	54852	10.91	552.94026890645
4	55417	11.01	557.05766009128
4	55974	11.11	561.18716366769
4	56531	11.21	565.32929839947
4	57088	11.31	569.48448985356
4	57645	11.41	573.65308714311
4	58202	11.51	577.83537666249
4	58759	11.61	582.03159335484
4	59316	11.71	586.24192995535
4	59873	11.81	590.46654457402
4	60430	11.91	594.70555211671
4	60995	12.01	598.95874755364
4	61552	12.11	603.22528556886
4	62109	12.21	607.50373706101
4	62666	12.31	611.79217613947
4	63223	12.41	616.0882689155
4	63780	12.51	620.3893627255
4	64337	12.61	624.69257536127
4	64894	12.71	628.99501807367
4	65451	12.81	633.29414508828
4	66008	12.91	637.58785730034
4	66573	13.01	641.87443271283
4	67130	13.11	646.15245868843
4	67687	13.21	650.4207763725
4	68244	13.31	654.67843510062
4	68801	13.41	658.92465499685
4	69358	13.51	663.15879629129
4	69915	13.61	667.38033414977
4	70472	13.71	671.5888380255
4	71029	13.81	675.78395472012
4	71586	13.91	679.965394488
4	72151	14.01	684.13291963676
4	72708	14.11	688.28633517589
4	73265	14.21	692.42548114524
4	73822	14.31	696.55022632178
4	74379	14.41	700.66046383797
4	74936	14.51	704.75626023167
4	75493	14.61	708.8382308089
4	76050	14.71	712.90761930427
4	76607	14.81	716.96621153514
4	77164	14.91	721.0162409857
4	77729	15.01	725.06029425804
4	78286	15.11	729.10121727055
4	78843	15.21	733.14195289697
4	79400	15.31	737.18521029053
4	79957	15.41	741.23323118698
4	80514	15.51	745.28785459042
4	81071	15.61	749.35058912475
4	81628	15.71	753.42267238701
4	82185	15.81	757.50511963785
4	82742	15.91	761.59876374459
4	83307	16.01	765.70428794855
4	83864	16.11	769.82225274555
4	84421	16.21	773.95311793741
4	84978	16.31	778.09726072176
4	85535	16.41	782.25499053204
4	86092	16.51	786.42656121145
4	86649	16.61	790.61218099981
4	87206	16.71	794.81202072632
4	87763	16.81	799.02622053042
4	88320	16.91	803.25489436079
4	88885	17.01	807.49794571343
4	89442	17.11	811.7546762181
4	89999	17.21	816.02377221353
4	90556	17.31	820.30339440292
4	91113	17.41	824.59127027419
4	91670	17.51	828.88478675279
4	92227	17.61	833.1810823713
4	92784	17.71	837.47723148464
4	93341	17.81	841.77058182865
4	93898	17.91	846.0589414315
4	94463	18.01	850.3405121128
4	95020	18.11	854.61381873837
4	95577	18.21	858.87765118436
4	96134	18.31	863.13101672774
4	96691	18.41	867.37310098986
4	97248	18.51	871.60323589656
4	97805	18.61	875.82087339438
4	98362	18.71	880.02556388855
4	98919	18.81	884.21693855479
4	99476	18.91	888.39469482873
4	100041	19.01	892.55858450219
4	100598	19.11	896.70840395803
4	101155	19.21	900.84398615926
4	101712	19.31	904.96519407737
4	102269	19.41	909.07191621998
4	102826	19.51	913.16423775302
4	103383	19.61	917.24282621346
4	103940	19.71	921.30896933546
4	104497	19.81	925.36448657876
4	105054	19.91	929.41163597
4	105619	20.01	933.45302074841
4	106176	20.11	937.49149659225
4	106733	20.21	941.52999549348
4	107290	20.31	945.57119074825
4	107847	20.41	949.61729272754
4	108404	20.51	953.67011470547
4	108961	20.61	957.73114419834
4	109518	20.71	961.80160148766
4	110075	20.81	965.88248762926
4	110632	20.91	969.97462383761
4	111197	21.01	974.07868379458
4	111754	21.11	978.19522015396
4	112311	21.21	982.32468628436
4	112868	21.31	986.46745410593
4	113425	21.41	990.62382872274
4	113982	21.51	994.79406042639
4	114539	21.61	998.97835454317
4	115096	21.71	1003.1768795122
4	115653	21.81	1007.3897735121
4	116210	21.91	1011.6171489489
4	116775	22.01	1015.8589165305
4	117332	22.11	1020.114397297
4	117889	22.21	1024.3822938883
4	118446	22.31	1028.6607794773
4	119003	22.41	1032.9475906551
4	119560	22.51	1037.2401205251
4	120117	22.61	1041.5355112527
4	120674	22.71	1045.8308331907
4	121231	22.81	1050.1234208341
4	121788	22.91	1054.4110706279
4	122353	23.01	1058.6919748899
4	122910	23.11	1062.9646506906
4	123467	23.21	1067.2278815118
4	124024	23.31	1071.4806693845
4	124581	23.41	1075.7221956266
4	125138	23.51	1079.9517886338
4	125695	23.61	1084.1688974565
4	126252	23.71	1088.3730701241
4	126809	23.81	1092.5639358634
4	127366	23.91	1096.7411905113
4	127931	24.01	1100.9045845478
4	128488	24.11	1105.0539132799
4	129045	24.21	1109.189008788
4	129602	24.31	1113.3097333195
4	130159	24.41	1117.4159748067
4	130716	24.51	1121.5078210102
4	131273	24.61	1125.5859466508
4	131830	24.71	1129.6516455162
4	132387	24.81	1133.7067416994
4	132944	24.91	1137.7534966119
4	133509	25.01	1141.7945157927
4	134066	25.11	1145.832656276
4	134623	25.21	1149.8708485792
4	135180	25.31	1153.9117610981
4	135737	25.41	1157.9575999171
4	136294	25.51	1162.0101747933
4	136851	25.61	1166.0709703581
4	137408	25.71	1170.1412045264
4	137965	25.81	1174.2218764125
4	138522	25.91	1178.3138056382
4	139087	26.01	1182.4176645787
4	139644	26.11	1186.5340048161
4	140201	26.21	1190.6632788395
4	140758	26.31	1194.8058578479
4	141315	26.41	1198.9620463536
4	141872	26.51	1203.1320941628
4	142429	26.61	1207.3162062035
4	142986	26.71	1211.5145505881
4	143543	26.81	1215.7272652274
4	144100	26.91	1219.9544623145
4	144665	27.01	1224.1960535204
4	145222	27.11	1228.4513625514
4	145779	27.21	1232.7190942938
4	146336	27.31	1236.9974236401
4	146893	27.41	1241.2840884376
4	147450	27.51	1245.5764826434
4	148007	27.61	1249.8717489262
4	148564	27.71	1254.1669570917
4	149121	27.81	1258.4594398168
4	149678	27.91	1262.7469919558
4	150243	28.01	1267.0278045214
4	150800	28.11	1271.3003935141
4	151357	28.21	1275.5635415371
4	151914	28.31	1279.8162499011
4	152471	28.41	1284.0576993333
4	153028	28.51	1288.2872177442
4	153585	28.61	1292.5042537867
4	154142	28.71	1296.708355164
4	154699	28.81	1300.8991508351
4	155256	28.91	1305.0763364174
4	155821	29.01	1309.2396622108
4	156378	29.11	1313.3889233746
4	156935	29.21	1317.5239518678
4	157492	29.31	1321.6446098384
4	158049	29.41	1325.7507851399
4	158606	29.51	1329.8425658903
4	159163	29.61	1333.9206277996
4	159720	29.71	1337.9862654894
4	160277	29.81	1342.0413036907
4	160834	29.91	1346.0880042812
4	161399	30.01	1350.1289731167
4	161956	30.11	1354.1670674184
4	162513	30.21	1358.2052175003
4	163070	30.31	1362.2460910839
4	163627	30.41	1366.2918936629
4	164184	30.51	1370.3444345104
4	164741	30.61	1374.4051978605
4	165298	30.71	1378.4754013022
4	165855	30.81	1382.5560436825
4	166412	30.91	1386.6479444037
4	166977	31.01	1390.7517756614
4	167534	31.11	1394.8680888898
4	168091	31.21	1398.9973364572
4	168648	31.31	1403.1398894631
4	169205	31.41	1407.2960523384
4	169762	31.51	1411.4660748223
4	170319	31.61	1415.6501617882
4	170876	31.71	1419.8484813034
4	171433	31.81	1424.0611712418
4	171990	31.91	1428.2883437672
4	172555	32.01	1432.5299106832
4	173112	32.11	1436.7851960633
4	173669	32.21	1441.0529051032
4	174226	32.31	1445.3312129323
4	174783	32.41	1449.6178575707
4	175340	32.51	1453.9102330932
4	175897	32.61	1458.2054822379
4	176454	32.71	1462.500674735
4	177011	32.81	1466.793143011
4	177568	32.91	1471.0806817012
4	178133	33.01	1475.3614816387
4	178690	33.11	1479.6340586764
4	179247	33.21	1483.8971952966
4	179804	33.31	1488.149892711
4	180361	33.41	1492.391331565
4	180918	33.51	1496.6208397028
4	181475	33.61	1500.8378657222
4	182032	33.71	1505.0419572816
4	182589	33.81	1509.2327433031
4	183146	33.91	1513.4099193738
4	183711	34.01	1517.573235769
4	184268	34.11	1521.7224876274
4	184825	34.21	1525.8575068915
4	185382	34.31	1529.9781556955
4	185939	34.41	1534.084321882
4	186496	34.51	1538.1760936184
4	187053	34.61	1542.2541467508
4	187610	34.71	1546.3197760156
4	188167	34.81	1550.3748062318
4	188724	34.91	1554.4214993412
4	189289	35.01	1558.4624612433
4	189846	35.11	1562.500549185
4	190403	35.21	1566.5386934523
4	190960	35.31	1570.5795616738
4	191517	35.41	1574.6253592619
4	192074	35.51	1578.6778954231
4	192631	35.61	1582.7386543367
4	193188	35.71	1586.8088535468
4	193745	35.81	1590.8894918635
4	194302	35.91	1594.9813886592
4	194867	36.01	1599.0852161045
4	195424	36.11	1603.2015256133
4	195981	36.21	1607.3307695372
4	196538	36.31	1611.4733189621
4	197095	36.41	1615.6294783076
3	232	1.11	41.666667929418
3	788	1.21	41.666667899951
3	1344	1.31	41.666667853658
3	1900	1.41	41.666667794392
3	2456	1.51	41.666667725546
3	3012	1.61	41.666667650077
3	3568	1.71	41.666667570527
3	4124	1.81	41.666667489057
3	4680	1.91	41.666667407473
3	5244	2.01	41.666667327259
3	5800	2.11	41.666667249607
3	6356	2.21	41.66666717545
3	6912	2.31	41.66666710549
3	7468	2.41	41.666667040228
3	8024	2.51	41.66666697999
3	8580	2.61	41.666666924954
3	9136	2.71	41.666666875173
3	9692	2.81	41.666666830595
3	10248	2.91	41.666666791086
3	10812	3.01	41.666666756443
3	11368	3.11	41.666666726414
3	11924	3.21	41.666666700707
3	12480	3.31	41.666666679009
3	13036	3.41	41.666666660987
3	13592	3.51	41.666666646305
3	14148	3.61	41.666666634625
3	14704	3.71	41.666666625619
3	15260	3.81	41.666666618967
3	15816	3.91	41.666666614365
3	16380	4.01	41.666666611529
3	16936	4.11	41.66666661019
3	17492	4.21	41.666666610106
3	18048	4.31	41.66666661105
3	18604	4.41	41.666666612823
3	19160	4.51	41.666666615243
3	19716	4.61	41.666666618151
3	20272	4.71	41.666666621406
3	20828	4.81	41.666666624888
3	21384	4.91	41.666666628494
3	21949	5.01	41.666666632137
3	22506	5.11	41.666734900033
3	23063	5.21	41.670948476405
3	23620	5.31	41.684664742913
3	24177	5.41	41.711945167374
3	24734	5.51	41.755610823567
3	25291	5.61	41.816952665848
3	25848	5.71	41.894216596382
3	26405	5.81	41.984547685456
3	26962	5.91	42.085598395823
3	27527	6.01	42.195442929292
3	28084	6.11	42.312501460593
3	28641	6.21	42.43547798275
3	29198	6.31	42.563309318645
3	29755	6.41	42.695123292736
3	30312	6.51	42.830202833657
3	30869	6.61	42.967277868462
3	31426	6.71	43.102240784882
3	31983	6.81	43.23027401884
3	32540	6.91	43.346870620625
3	33105	7.01	43.447913783684
3	33662	7.11	43.529744939715
3	34219	7.21	43.589220237998
3	34776	7.31	43.623755328609
3	35333	7.41	43.631381416411
3	35890	7.51	43.612092454521
3	36447	7.61	43.56932103241
3	37004	7.71	43.507285813978
3	37561	7.81	43.429447572987
3	38118	7.91	43.338645349306
3	38683	8.01	43.237208144466
3	39240	8.11	43.127046550912
3	39797	8.21	43.00972791991
3	40354	8.31	42.886538025405
3	40911	8.41	42.758531649867
3	41468	8.51	42.626574082303
3	42025	8.61	42.491375161077
3	42582	8.71	42.353517200886
3	43139	8.81	42.2134779026
3	43696	8.91	42.071649147316
3	44261	9.01	41.928352414027
3	44818	9.11	41.783851427477
3	45375	9.21	41.638362533812
3	45932	9.31	41.492063212224
3	46489	9.41	41.345099057468
3	47046	9.51	41.197687195957
3	47603	9.61	41.054345829873
3	48160	9.71	40.92197732765
3	48717	9.81	40.806518415565
3	49274	9.91	40.712854985186
3	49839	10.01	40.644830941643
3	50396	10.11	40.605270576133
3	50953	10.21	40.595961789979
3	51510	10.31	40.614765090574
3	52067	10.41	40.657138101268
3	52624	10.51	40.71884648357
3	53181	10.61	40.796416605098
3	53738	10.71	40.886998877433
3	54295	10.81	40.988255645561
3	54852	10.91	41.098269218164
3	55417	11.01	41.215466420431
3	55974	11.11	41.33855670108
3	56531	11.21	41.46648135856
3	57088	11.31	41.598371888854
3	57645	11.41	41.733515816169
3	58202	11.51	41.8713286622
3	58759	11.61	42.01133095116
3	59316	11.71	42.153129345907
3	59873	11.81	42.296401172981
3	60430	11.91	42.440475080365
3	60995	12.01	42.58031618601
3	61552	12.11	42.709536275545
3	62109	12.21	42.822598150946
3	62666	12.31	42.914842923842
3	63223	12.41	42.98250305941
3	63780	12.51	43.022702120469
3	64337	12.61	43.033484343958
3	64894	12.71	43.016216261811
3	65451	12.81	42.975102664961
3	66008	12.91	42.914427440664
3	66573	13.01	42.837704868549
3	67130	13.11	42.747817881934
3	67687	13.21	42.647131490264
3	68244	13.31	42.537585825019
3	68801	13.41	42.420772469757
3	69358	13.51	42.297997077347
3	69915	13.61	42.170330737898
3	70472	13.71	42.038652118361
3	71029	13.81	41.903682031675
3	71586	13.91	41.766011795509
3	72151	14.01	41.626126496309
3	72708	14.11	41.484424073913
3	73265	14.21	41.341230977594
3	73822	14.31	41.196815009456
3	74379	14.41	41.051434913329
3	74936	14.51	40.908219760552
3	75493	14.61	40.773448085166
3	76050	14.71	40.653147856182
3	76607	14.81	40.552410818743
3	77164	14.91	40.47538209096
3	77729	15.01	40.425263577507
3	78286	15.11	40.404308597451
3	78843	15.21	40.412557746568
3	79400	15.31	40.44627267704
3	79957	15.41	40.500878417952
3	80514	15.51	40.572621899691
3	81071	15.61	40.658424297982
3	81628	15.71	40.755759904564
3	82185	15.81	40.862556758959
3	82742	15.91	40.977115131913
3	83307	16.01	41.098040653421
3	83864	16.11	41.224189454421
3	84421	16.21	41.354623163871
3	84978	16.31	41.488571990683
3	85535	16.41	41.625404438048
3	86092	16.51	41.76460245863
3	86649	16.61	41.905741073179
3	87206	16.71	42.04847165069
3	87763	16.81	42.19250819231
3	88320	16.91	42.337565506681
3	88885	17.01	42.4798603368
3	89442	17.11	42.612895096878
3	89999	17.21	42.730819673225
3	90556	17.31	42.828699680314
3	91113	17.41	42.90252772365
3	91670	17.51	42.949221043622
3	92227	17.61	42.966635531731
3	92784	17.71	42.955239679248
3	93341	17.81	42.91894335602
3	93898	17.91	42.862219973949
3	94463	18.01	42.788739288885
3	95020	18.11	42.7015117788
3	95577	18.21	42.603007084181
3	96134	18.31	42.495251170402
3	96691	18.41	42.379906034713
3	97248	18.51	42.258335093733
3	97805	18.61	42.131656823968
3	98362	18.71	42.000788765715
3	98919	18.81	41.866483621601
3	99476	18.91	41.729358869944
3	100041	19.01	41.589921058033
3	100598	19.11	41.448585731074
3	101155	19.21	41.305693780873
3	101712	19.31	41.161524857441
3	102269	19.41	41.016354307546
3	102826	19.51	40.873722785233
3	103383	19.61	40.740048622954
3	103940	19.71	40.621247784992
3	104497	19.81	40.522312925574
3	105054	19.91	40.447302443002
3	105619	20.01	40.399343226154
3	106176	20.11	40.380619836989
3	106733	20.21	40.390852261269
3	107290	20.31	40.42619416815
3	107847	20.41	40.482134596392
3	108404	20.51	40.554972986614
3	108961	20.61	40.641673591217
3	109518	20.71	40.73974603982
3	110075	20.81	40.847147361314
3	110632	20.91	40.962201607825
3	111197	21.01	41.083533918363
3	111754	21.11	41.210016428051
3	112311	21.21	41.340723894856
3	112868	21.31	41.47489729805
3	113425	21.41	41.611913976267
3	113982	21.51	41.751263130315
3	114539	21.61	41.892525726947
3	115096	21.71	42.035358012948
3	115653	21.81	42.179477990955
3	116210	21.91	42.324606891881
3	116775	22.01	42.467114711865
3	117332	22.11	42.600552801533
3	117889	22.21	42.71902961828
3	118446	22.31	42.817574119593
3	119003	22.41	42.892146826113
3	119560	22.51	42.939637219565
3	120117	22.61	42.957875746063
3	120674	22.71	42.947212316072
3	121231	22.81	42.911516834389
3	121788	22.91	42.855286351658
3	122353	23.01	42.78221001573
3	122910	23.11	42.695314212772
3	123467	23.21	42.59708163353
3	124024	23.31	42.489548949138
3	124581	23.41	42.374386939297
3	125138	23.51	42.252966225295
3	125695	23.61	42.126411193975
3	126252	23.71	41.995644234173
3	126809	23.81	41.861422026
3	127366	23.91	41.724365310702
3	127931	24.01	41.584983312302
3	128488	24.11	41.443693771862
3	129045	24.21	41.300839382553
3	129602	24.31	41.156701272136
3	130159	24.41	41.011556940943
3	130716	24.51	40.869003238384
3	131273	24.61	40.735477564529
3	131830	24.71	40.616880524647
3	132387	24.81	40.518191181199
3	132944	24.91	40.443456034258
3	133509	25.01	40.395791677168
3	134066	25.11	40.377373233275
3	134623	25.21	40.387876729909
3	135180	25.31	40.423441010534
3	135737	25.41	40.479563862699
3	136294	25.51	40.552551904076
3	136851	25.61	40.63937527475
3	137408	25.71	40.73754843429
3	137965	25.81	40.845032373831
3	138522	25.91	40.960154395916
3	139087	26.01	41.08154230603
3	139644	26.11	41.208070426737
3	140201	26.21	41.338815310463
3	140758	26.31	41.473019408564
3	141315	26.41	41.610061267297
3	141872	26.51	41.749431078138
3	142429	26.61	41.890710620534
3	142986	26.71	42.033556807965
3	143543	26.81	42.177688189986
3	144100	26.91	42.32282679545
3	144665	27.01	42.465363471292
3	145222	27.11	42.598856642818
3	145779	27.21	42.717409067934
3	146336	27.31	42.816044660405
3	146893	27.41	42.890719525564
3	147450	27.51	42.938319324542
3	148007	27.61	42.956671000835
3	148564	27.71	42.946108152695
3	149121	27.81	42.910495183162
3	149678	27.91	42.854332389134
3	150243	28.01	42.781311581518
3	150800	28.11	42.694461331116
3	151357	28.21	42.596266120836
3	151914	28.31	42.488764092008
3	152471	28.41	42.373627230407
3	153028	28.51	42.252227146722
3	153585	28.61	42.125689039447
3	154142	28.71	41.994935963255
3	154699	28.81	41.86072514448
3	155256	28.91	41.723677772453
3	155821	29.01	41.584303438791
3	156378	29.11	41.443020186105
3	156935	29.21	41.300170954946
3	157492	29.31	41.156037076006
3	158049	29.41	41.010896345715
3	158606	29.51	40.868353351213
3	159163	29.61	40.734848117978
3	159720	29.71	40.616279136189
3	160277	29.81	40.517623596567
3	160834	29.91	40.442926360655
3	161399	30.01	40.395302603962
3	161956	30.11	40.376926150007
3	162513	30.21	40.387466972619
3	163070	30.31	40.423061873548
3	163627	30.41	40.479209845027
3	164184	30.51	40.55221849299
3	164741	30.61	40.639058768242
3	165298	30.71	40.737245795424
3	165855	30.81	40.844741111261
3	166412	30.91	40.959872465872
3	166977	31.01	41.081268031907
3	167534	31.11	41.207802433136
3	168091	31.21	41.338552469078
3	168648	31.31	41.47276079379
3	169205	31.41	41.609806119816
3	169762	31.51	41.749178775045
3	170319	31.61	41.890460650831
3	170876	31.71	42.033308752454
3	171433	31.81	42.177441704779
3	171990	31.91	42.32258164654
3	172555	32.01	42.465122296168
3	173112	32.11	42.598623053264
3	173669	32.21	42.71718589082
3	174226	32.31	42.815834027991
3	174783	32.41	42.890522962046
3	175340	32.51	42.938137827955
3	175897	32.61	42.956505086842
3	176454	32.71	42.945956090486
3	177011	32.81	42.910354484241
3	177568	32.91	42.854201012067
3	178133	33.01	42.781187851618
3	178690	33.11	42.694343874556
3	179247	33.21	42.5961538106
3	179804	33.31	42.488656003551
3	180361	33.41	42.373522605279
3	180918	33.51	42.252125362729
3	181475	33.61	42.125589586175
3	182032	33.71	41.994838421986
3	182589	33.81	41.860629171719
3	183146	33.91	41.723583086416
3	183711	34.01	41.584209808314
3	184268	34.11	41.442927421557
3	184825	34.21	41.300078900759
3	185382	34.31	41.155945604564
3	185939	34.41	41.010805370177
3	186496	34.51	40.868263850359
3	187053	34.61	40.734761432154
3	187610	34.71	40.616196314454
3	188167	34.81	40.517545430209
3	188724	34.91	40.442853415309
3	189289	35.01	40.395235250002
3	189846	35.11	40.376864578797
3	190403	35.21	40.387410541851
3	190960	35.31	40.423009659731
3	191517	35.41	40.47916109058
3	192074	35.51	40.552172576432
3	192631	35.61	40.63901517974
3	193188	35.71	40.73720411674
3	193745	35.81	40.844700999292
3	194302	35.91	40.959833639155
3	194867	36.01	41.081230259545
3	195424	36.11	41.207765525712
3	195981	36.21	41.338516271204
3	196538	36.31	41.472725177995
3	197095	36.41	41.609770981528
1	232	1.11	0
1	788	1.21	0
1	1344	1.31	0
1	1900	1.41	0
1	2456	1.51	0
1	3012	1.61	0
1	3568	1.71	0
1	4124	1.81	0
1	4680	1.91	0
1	5244	2.01	0
1	5800	2.11	0
1	6356	2.21	0
1	6912	2.31	0
1	7468	2.41	0
1	8024	2.51	0
1	8580	2.61	0
1	9136	2.71	0
1	9692	2.81	0
1	10248	2.91	0
1	10812	3.01	0
1	11368	3.11	0
1	11924	3.21	0
1	12480	3.31	0
1	13036	3.41	0
1	13592	3.51	0
1	14148	3.61	0
1	14704	3.71	0
1	15260	3.81	0
1	15816	3.91	0
1	16380	4.01	0
1	16936	4.11	0
1	17492	4.21	0
1	18048	4.31	0
1	18604	4.41	0
1	19160	4.51	0
1	19716	4.61	0
1	20272	4.71	0
1	20828	4.81	0
1	21384	4.91	0
1	21949	5.01	0
1	22506	5.11	0
1	23063	5.21	0
1	23620	5.31	0
1	24177	5.41	0
1	24734	5.51	0
1	25291	5.61	0
1	25848	5.71	0
1	26405	5.81	0
1	26962	5.91	0
1	27527	6.01	0
1	28084	6.11	0
1	28641	6.21	0
1	29198	6.31	0
1	29755	6.41	0
1	30312	6.51	0
1	30869	6.61	0
1	31426	6.71	0
1	31983	6.81	0
1	32540	6.91	0
1	33105	7.01	0
1	33662	7.11	0
1	34219	7.21	0
1	34776	7.31	0
1	35333	7.41	0
1	35890	7.51	0
1	36447	7.61	0
1	37004	7.71	0
1	37561	7.81	0
1	38118	7.91	0
1	38683	8.01	0
1	39240	8.11	0
1	39797	8.21	0
1	40354	8.31	0
1	40911	8.41	0
1	41468	8.51	0
1	42025	8.61	0
1	42582	8.71	0
1	43139	8.81	0
1	43696	8.91	0
1	44261	9.01	0
1	44818	9.11	0
1	45375	9.21	0
1	45932	9.31	0
1	46489	9.41	0
1	47046	9.51	0
1	47603	9.61	0
1	48160	9.71	0
1	48717	9.81	0
1	49274	9.91	0
1	49839	10.01	0
1	50396	10.11	0
1	50953	10.21	0
1	51510	10.31	0
1	52067	10.41	0
1	52624	10.51	0
1	53181	10.61	0
1	53738	10.71	0
1	54295	10.81	0
1	54852	10.91	0
1	55417	11.01	0
1	55974	11.11	0
1	56531	11.21	0
1	57088	11.31	0
1	57645	11.41	0
1	58202	11.51	0
1	58759	11.61	0
1	59316	11.71	0
1	59873	11.81	0
1	60430	11.91	0
1	60995	12.01	0
1	61552	12.11	0
1	62109	12.21	0
1	62666	12.31	0
1	63223	12.41	0
1	63780	12.51	0
1	64337	12.61	0
1	64894	12.71	0
1	65451	12.81	0
1	66008	12.91	0
1	66573	13.01	0
1	67130	13.11	0
1	67687	13.21	0
1	68244	13.31	0
1	68801	13.41	0
1	69358	13.51	0
1	69915	13.61	0
1	70472	13.71	0
1	71029	13.81	0
1	71586	13.91	0
1	72151	14.01	0
1	72708	14.11	0
1	73265	14.21	0
1	73822	14.31	0
1	74379	14.41	0
1	74936	14.51	0
1	75493	14.61	0
1	76050	14.71	0
1	76607	14.81	0
1	77164	14.91	0
1	77729	15.01	0
1	78286	15.11	0
1	78843	15.21	0
1	79400	15.31	0
1	79957	15.41	0
1	80514	15.51	0
1	81071	15.61	0
1	81628	15.71	0
1	82185	15.81	0
1	82742	15.91	0
1	83307	16.01	0
1	83864	16.11	0
1	84421	16.21	0
1	84978	16.31	0
1	85535	16.41	0
1	86092	16.51	0
1	86649	16.61	0
1	87206	16.71	0
1	87763	16.81	0
1	88320	16.91	0
1	88885	17.01	0
1	89442	17.11	0
1	89999	17.21	0
1	90556	17.31	0
1	91113	17.41	0
1	91670	17.51	0
1	92227	17.61	0
1	92784	17.71	0
1	93341	17.81	0
1	93898	17.91	0
1	94463	18.01	0
1	95020	18.11	0
1	95577	18.21	0
1	96134	18.31	0
1	96691	18.41	0
1	97248	18.51	0
1	97805	18.61	0
1	98362	18.71	0
1	98919	18.81	0
1	99476	18.91	0
1	100041	19.01	0
1	100598	19.11	0
1	101155	19.21	0
1	101712	19.31	0
1	102269	19.41	0
1	102826	19.51	0
1	103383	19.61	0
1	103940	19.71	0
1	104497	19.81	0
1	105054	19.91	0
1	105619	20.01	0
1	106176	20.11	0
1	106733	20.21	0
1	107290	20.31	0
1	107847	20.41	0
1	108404	20.51	0
1	108961	20.61	0
1	109518	20.71	0
1	110075	20.81	0
1	110632	20.91	0
1	111197	21.01	0
1	111754	21.11	0
1	112311	21.21	0
1	112868	21.31	0
1	113425	21.41	0
1	113982	21.51	0
1	114539	21.61	0
1	115096	21.71	0
1	115653	21.81	0
1	116210	21.91	0
1	116775	22.01	0
1	117332	22.11	0
1	117889	22.21	0
1	118446	22.31	0
1	119003	22.41	0
1	119560	22.51	0
1	120117	22.61	0
1	120674	22.71	0
1	121231	22.81	0
1	121788	22.91	0
1	122353	23.01	0
1	122910	23.11	0
1	123467	23.21	0
1	124024	23.31	0
1	124581	23.41	0
1	125138	23.51	0
1	125695	23.61	0
1	126252	23.71	0
1	126809	23.81	0
1	127366	23.91	0
1	127931	24.01	0
1	128488	24.11	0
1	129045	24.21	0
1	129602	24.31	0
1	130159	24.41	0
1	130716	24.51	0
1	131273	24.61	0
1	131830	24.71	0
1	132387	24.81	0
1	132944	24.91	0
1	133509	25.01	0
1	134066	25.11	0
1	134623	25.21	0
1	135180	25.31	0
1	135737	25.41	0
1	136294	25.51	0
1	136851	25.61	0
1	137408	25.71	0
1	137965	25.81	0
1	138522	25.91	0
1	139087	26.01	0
1	139644	26.11	0
1	140201	26.21	0
1	140758	26.31	0
1	141315	26.41	0
1	141872	26.51	0
1	142429	26.61	0
1	142986	26.71	0
1	143543	26.81	0
1	144100	26.91	0
1	144665	27.01	0
1	145222	27.11	0
1	145779	27.21	0
1	146336	27.31	0
1	146893	27.41	0
1	147450	27.51	0
1	148007	27.61	0
1	148564	27.71	0
1	149121	27.81	0
1	149678	27.91	0
1	150243	28.01	0
1	150800	28.11	0
1	151357	28.21	0
1	151914	28.31	0
1	152471	28.41	0
1	153028	28.51	0
1	153585	28.61	0
1	154142	28.71	0
1	154699	28.81	0
1	155256	28.91	0
1	155821	29.01	0
1	156378	29.11	0
1	156935	29.21	0
1	157492	29.31	0
1	158049	29.41	0
1	158606	29.51	0
1	159163	29.61	0
1	159720	29.71	0
1	160277	29.81	0
1	160834	29.91	0
1	161399	30.01	0
1	161956	30.11	0
1	162513	30.21	0
1	163070	30.31	0
1	163627	30.41	0
1	164184	30.51	0
1	164741	30.61	0
1	165298	30.71	0
1	165855	30.81	0
1	166412	30.91	0
1	166977	31.01	0
1	167534	31.11	0
1	168091	31.21	0
1	168648	31.31	0
1	169205	31.41	0
1	169762	31.51	0
1	170319	31.61	0
1	170876	31.71	0
1	171433	31.81	0
1	171990	31.91	0
1	172555	32.01	0
1	173112	32.11	0
1	173669	32.21	0
1	174226	32.31	0
1	174783	32.41	0
1	175340	32.51	0
1	175897	32.61	0
1	176454	32.71	0
1	177011	32.81	0
1	177568	32.91	0
1	178133	33.01	0
1	178690	33.11	0
1	179247	33.21	0
1	179804	33.31	0
1	180361	33.41	0
1	180918	33.51	0
1	181475	33.61	0
1	182032	33.71	0
1	182589	33.81	0
1	183146	33.91	0
1	183711	34.01	0
1	184268	34.11	0
1	184825	34.21	0
1	185382	34.31	0
1	185939	34.41	0
1	186496	34.51	0
1	187053	34.61	0
1	187610	34.71	0
1	188167	34.81	0
1	188724	34.91	0
1	189289	35.01	0
1	189846	35.11	0
1	190403	35.21	0
1	190960	35.31	0
1	191517	35.41	0
1	192074	35.51	0
1	192631	35.61	0
1	193188	35.71	0
1	193745	35.81	0
1	194302	35.91	0
1	194867	36.01	0
1	195424	36.11	0
1	195981	36.21	0
1	196538	36.31	0
1	197095	36.41	0
0	232	1.11	-1
0	788	1.21	-1
0	1344	1.31	-1
0	1900	1.41	-1
0	2456	1.51	-1
0	3012	1.61	-1
0	3568	1.71	-1
0	4124	1.81	-1
0	4680	1.91	-1
0	5244	2.01	-1
0	5800	2.11	-1
0	6356	2.21	-1
0	6912	2.31	-1
0	7468	2.41	-1
0	8024	2.51	-1
0	8580	2.61	-1
0	9136	2.71	-1
0	9692	2.81	-1
0	10248	2.91	-1
0	10812	3.01	-1
0	11368	3.11	-1
0	11924	3.21	-1
0	12480	3.31	-1
0	13036	3.41	-1
0	13592	3.51	-1
0	14148	3.61	-1
0	14704	3.71	-1
0	15260	3.81	-1
0	15816	3.91	-1
0	16380	4.01	-1
0	16936	4.11	-1
0	17492	4.21	-1
0	18048	4.31	-1
0	18604	4.41	-1
0	19160	4.51	-1
0	19716	4.61	-1
0	20272	4.71	-1
0	20828	4.81	-1
0	21384	4.91	-1
0	21949	5.01	-1
0	22506	5.11	-1
0	23063	5.21	-1
0	23620	5.31	-1
0	24177	5.41	-1
0	24734	5.51	-1
0	25291	5.61	-1
0	25848	5.71	-1
0	26405	5.81	-1
0	26962	5.91	-1
0	27527	6.01	-1
0	28084	6.11	-1
0	28641	6.21	-1
0	29198	6.31	-1
0	29755	6.41	-1
0	30312	6.51	-1
0	30869	6.61	-1
0	31426	6.71	-1
0	31983	6.81	-1
0	32540	6.91	-1
0	33105	7.01	-1
0	33662	7.11	-1
0	34219	7.21	-1
0	34776	7.31	-1
0	35333	7.41	-1
0	35890	7.51	-1
0	36447	7.61	-1
0	37004	7.71	-1
0	37561	7.81	-1
0	38118	7.91	-1
0	38683	8.01	-1
0	39240	8.11	-1
0	39797	8.21	-1
0	40354	8.31	-1
0	40911	8.41	-1
0	41468	8.51	-1
0	42025	8.61	-1
0	42582	8.71	-1
0	43139	8.81	-1
0	43696	8.91	-1
0	44261	9.01	-1
0	44818	9.11	-1
0	45375	9.21	-1
0	45932	9.31	-1
0	46489	9.41	-1
0	47046	9.51	-1
0	47603	9.61	-1
0	48160	9.71	-1
0	48717	9.81	-1
0	49274	9.91	-1
0	49839	10.01	-1
0	50396	10.11	-1
0	50953	10.21	-1
0	51510	10.31	-1
0	52067	10.41	-1
0	52624	10.51	-1
0	53181	10.61	-1
0	53738	10.71	-1
0	54295	10.81	-1
0	54852	10.91	-1
0	55417	11.01	-1
0	55974	11.11	-1
0	56531	11.21	-1
0	57088	11.31	-1
0	57645	11.41	-1
0	58202	11.51	-1
0	58759	11.61	-1
0	59316	11.71	-1
0	59873	11.81	-1
0	60430	11.91	-1
0	60995	12.01	-1
0	61552	12.11	-1
0	62109	12.21	-1
0	62666	12.31	-1
0	63223	12.41	-1
0	63780	12.51	-1
0	64337	12.61	-1
0	64894	12.71	-1
0	65451	12.81	-1
0	66008	12.91	-1
0	66573	13.01	-1
0	67130	13.11	-1
0	67687	13.21	-1
0	68244	13.31	-1
0	68801	13.41	-1
0	69358	13.51	-1
0	69915	13.61	-1
0	70472	13.71	-1
0	71029	13.81	-1
0	71586	13.91	-1
0	72151	14.01	-1
0	72708	14.11	-1
0	73265	14.21	-1
0	73822	14.31	-1
0	74379	14.41	-1
0	74936	14.51	-1
0	75493	14.61	-1
0	76050	14.71	-1
0	76607	14.81	-1
0	77164	14.91	-1
0	77729	15.01	-1
0	78286	15.11	-1
0	78843	15.21	-1
0	79400	15.31	-1
0	79957	15.41	-1
0	80514	15.51	-1
0	81071	15.61	-1
0	81628	15.71	-1
0	82185	15.81	-1
0	82742	15.91	-1
0	83307	16.01	-1
0	83864	16.11	-1
0	84421	16.21	-1
0	84978	16.31	-1
0	85535	16.41	-1
0	86092	16.51	-1
0	86649	16.61	-1
0	87206	16.71	-1
0	87763	16.81	-1
0	88320	16.91	-1
0	88885	17.01	-1
0	89442	17.11	-1
0	89999	17.21	-1
0	90556	17.31	-1
0	91113	17.41	-1
0	91670	17.51	-1
0	92227	17.61	-1
0	92784	17.71	-1
0	93341	17.81	-1
0	93898	17.91	-1
0	94463	18.01	-1
0	95020	18.11	-1
0	95577	18.21	-1
0	96134	18.31	-1
0	96691	18.41	-1
0	97248	18.51	-1
0	97805	18.61	-1
0	98362	18.71	-1
0	98919	18.81	-1
0	99476	18.91	-1
0	100041	19.01	-1
0	100598	19.11	-1
0	101155	19.21	-1
0	101712	19.31	-1
0	102269	19.41	-1
0	102826	19.51	-1
0	103383	19.61	-1
0	103940	19.71	-1
0	104497	19.81	-1
0	105054	19.91	-1
0	105619	20.01	-1
0	106176	20.11	-1
0	106733	20.21	-1
0	107290	20.31	-1
0	107847	20.41	-1
0	108404	20.51	-1
0	108961	20.61	-1
0	109518	20.71	-1
0	110075	20.81	-1
0	110632	20.91	-1
0	111197	21.01	-1
0	111754	21.11	-1
0	112311	21.21	-1
0	112868	21.31	-1
0	113425	21.41	-1
0	113982	21.51	-1
0	114539	21.61	-1
0	115096	21.71	-1
0	115653	21.81	-1
0	116210	21.91	-1
0	116775	22.01	-1
0	117332	22.11	-1
0	117889	22.21	-1
0	118446	22.31	-1
0	119003	22.41	-1
0	119560	22.51	-1
0	120117	22.61	-1
0	120674	22.71	-1
0	121231	22.81	-1
0	121788	22.91	-1
0	122353	23.01	-1
0	122910	23.11	-1
0	123467	23.21	-1
0	124024	23.31	-1
0	124581	23.41	-1
0	125138	23.51	-1
0	125695	23.61	-1
0	126252	23.71	-1
0	126809	23.81	-1
0	127366	23.91	-1
0	127931	24.01	-1
0	128488	24.11	-1
0	129045	24.21	-1
0	129602	24.31	-1
0	130159	24.41	-1
0	130716	24.51	-1
0	131273	24.61	-1
0	131830	24.71	-1
0	132387	24.81	-1
0	132944	24.91	-1
0	133509	25.01	-1
0	134066	25.11	-1
0	134623	25.21	-1
0	135180	25.31	-1
0	135737	25.41	-1
0	136294	25.51	-1
0	136851	25.61	-1
0	137408	25.71	-1
0	137965	25.81	-1
0	138522	25.91	-1
0	139087	26.01	-1
0	139644	26.11	-1
0	140201	26.21	-1
0	140758	26.31	-1
0	141315	26.41	-1
0	141872	26.51	-1
0	142429	26.61	-1
0	142986	26.71	-1
0	143543	26.81	-1
0	144100	26.91	-1
0	144665	27.01	-1
0	145222	27.11	-1
0	145779	27.21	-1
0	146336	27.31	-1
0	146893	27.41	-1
0	147450	27.51	-1
0	148007	27.61	-1
0	148564	27.71	-1
0	149121	27.81	-1
0	149678	27.91	-1
0	150243	28.01	-1
0	150800	28.11	-1
0	151357	28.21	-1
0	151914	28.31	-1
0	152471	28.41	-1
0	153028	28.51	-1
0	153585	28.61	-1
0	154142	28.71	-1
0	154699	28.81	-1
0	155256	28.91	-1
0	155821	29.01	-1
0	156378	29.11	-1
0	156935	29.21	-1
0	157492	29.31	-1
0	158049	29.41	-1
0	158606	29.51	-1
0	159163	29.61	-1
0	159720	29.71	-1
0	160277	29.81	-1
0	160834	29.91	-1
0	161399	30.01	-1
0	161956	30.11	-1
0	162513	30.21	-1
0	163070	30.31	-1
0	163627	30.41	-1
0	164184	30.51	-1
0	164741	30.61	-1
0	165298	30.71	-1
0	165855	30.81	-1
0	166412	30.91	-1
0	166977	31.01	-1
0	167534	31.11	-1
0	168091	31.21	-1
0	168648	31.31	-1
0	169205	31.41	-1
0	169762	31.51	-1
0	170319	31.61	-1
0	170876	31.71	-1
0	171433	31.81	-1
0	171990	31.91	-1
0	172555	32.01	-1
0	173112	32.11	-1
0	173669	32.21	-1
0	174226	32.31	-1
0	174783	32.41	-1
0	175340	32.51	-1
0	175897	32.61	-1
0	176454	32.71	-1
0	177011	32.81	-1
0	177568	32.91	-1
0	178133	33.01	-1
0	178690	33.11	-1
0	179247	33.21	-1
0	179804	33.31	-1
0	180361	33.41	-1
0	180918	33.51	-1
0	181475	33.61	-1
0	182032	33.71	-1
0	182589	33.81	-1
0	183146	33.91	-1
0	183711	34.01	-1
0	184268	34.11	-1
0	184825	34.21	-1
0	185382	34.31	-1
0	185939	34.41	-1
0	186496	34.51	-1
0	187053	34.61	-1
0	187610	34.71	-1
0	188167	34.81	-1
0	188724	34.91	-1
0	189289	35.01	-1
0	189846	35.11	-1
0	190403	35.21	-1
0	190960	35.31	-1
0	191517	35.41	-1
0	192074	35.51	-1
0	192631	35.61	-1
0	193188	35.71	-1
0	193745	35.81	-1
0	194302	35.91	-1
0	194867	36.01	-1
0	195424	36.11	-1
0	195981	36.21	-1
0	196538	36.31	-1
0	197095	36.41	-1
2	232	1.11	0
2	788	1.21	0
2	1344	1.31	0
2	1900	1.41	0
2	2456	1.51	0
2	3012	1.61	0
2	3568	1.71	0
2	4124	1.81	0
2	4680	1.91	0
2	5244	2.01	0
2	5800	2.11	0
2	6356	2.21	0
2	6912	2.31	0
2	7468	2.41	0
2	8024	2.51	0
2	8580	2.61	0
2	9136	2.71	0
2	9692	2.81	0
2	10248	2.91	0
2	10812	3.01	0
2	11368	3.11	0
2	11924	3.21	0
2	12480	3.31	0
2	13036	3.41	0
2	13592	3.51	0
2	14148	3.61	0
2	14704	3.71	0
2	15260	3.81	0
2	15816	3.91	0
2	16380	4.01	0
2	16936	4.11	0
2	17492	4.21	0
2	18048	4.31	0
2	18604	4.41	0
2	19160	4.51	0
2	19716	4.61	0
2	20272	4.71	0
2	20828	4.81	0
2	21384	4.91	0
2	21949	5.01	0
2	22506	5.11	0
2	23063	5.21	0
2	23620	5.31	0
2	24177	5.41	0
2	24734	5.51	0
2	25291	5.61	0
2	25848	5.71	0
2	26405	5.81	0
2	26962	5.91	0
2	27527	6.01	0
2	28084	6.11	0
2	28641	6.21	0
2	29198	6.31	0
2	29755	6.41	0
2	30312	6.51	0
2	30869	6.61	0
2	31426	6.71	0
2	31983	6.81	0
2	32540	6.91	0
2	33105	7.01	0
2	33662	7.11	0
2	34219	7.21	0
2	34776	7.31	0
2	35333	7.41	0
2	35890	7.51	0
2	36447	7.61	0
2	37004	7.71	0
2	37561	7.81	0
2	38118	7.91	0
2	38683	8.01	0
2	39240	8.11	0
2	39797	8.21	0
2	40354	8.31	0
2	40911	8.41	0
2	41468	8.51	0
2	42025	8.61	0
2	42582	8.71	0
2	43139	8.81	0
2	43696	8.91	0
2	44261	9.01	0
2	44818	9.11	0
2	45375	9.21	0
2	45932	9.31	0
2	46489	9.41	0
2	47046	9.51	0
2	47603	9.61	0
2	48160	9.71	0
2	48717	9.81	0
2	49274	9.91	0
2	49839	10.01	0
2	50396	10.11	0
2	50953	10.21	0
2	51510	10.31	0
2	52067	10.41	0
2	52624	10.51	0
2	53181	10.61	0
2	53738	10.71	0
2	54295	10.81	0
2	54852	10.91	0
2	55417	11.01	0
2	55974	11.11	0
2	56531	11.21	0
2	57088	11.31	0
2	57645	11.41	0
2	58202	11.51	0
2	58759	11.61	0
2	59316	11.71	0
2	59873	11.81	0
2	60430	11.91	0
2	60995	12.01	0
2	61552	12.11	0
2	62109	12.21	0
2	62666	12.31	0
2	63223	12.41	0
2	63780	12.51	0
2	64337	12.61	0
2	64894	12.71	0
2	65451	12.81	0
2	66008	12.91	0
2	66573	13.01	0
2	67130	13.11	0
2	67687	13.21	0
2	68244	13.31	0
2	68801	13.41	0
2	69358	13.51	0
2	69915	13.61	0
2	70472	13.71	0
2	71029	13.81	0
2	71586	13.91	0
2	72151	14.01	0
2	72708	14.11	0
2	73265	14.21	0
2	73822	14.31	0
2	74379	14.41	0
2	74936	14.51	0
2	75493	14.61	0
2	76050	14.71	0
2	76607	14.81	0
2	77164	14.91	0
2	77729	15.01	0
2	78286	15.11	0
2	78843	15.21	0
2	79400	15.31	0
2	79957	15.41	0
2	80514	15.51	0
2	81071	15.61	0
2	81628	15.71	0
2	82185	15.81	0
2	82742	15.91	0
2	83307	16.01	0
2	83864	16.11	0
2	84421	16.21	0
2	84978	16.31	0
2	85535	16.41	0
2	86092	16.51	0
2	86649	16.61	0
2	87206	16.71	0
2	87763	16.81	0
2	88320	16.91	0
2	88885	17.01	0
2	89442	17.11	0
2	89999	17.21	0
2	90556	17.31	0
2	91113	17.41	0
2	91670	17.51	0
2	92227	17.61	0
2	92784	17.71	0
2	93341	17.81	0
2	93898	17.91	0
2	94463	18.01	0
2	95020	18.11	0
2	95577	18.21	0
2	96134	18.31	0
2	96691	18.41	0
2	97248	18.51	0
2	97805	18.61	0
2	98362	18.71	0
2	98919	18.81	0
2	99476	18.91	0
2	100041	19.01	0
2	100598	19.11	0
2	101155	19.21	0
2	101712	19.31	0
2	102269	19.41	0
2	102826	19.51	0
2	103383	19.61	0
2	103940	19.71	0
2	104497	19.81	0
2	105054	19.91	0
2	105619	20.01	0
2	106176	20.11	0
2	106733	20.21	0
2	107290	20.31	0
2	107847	20.41	0
2	108404	20.51	0
2	108961	20.61	0
2	109518	20.71	0
2	110075	20.81	0
2	110632	20.91	0
2	111197	21.01	0
2	111754	21.11	0
2	112311	21.21	0
2	112868	21.31	0
2	113425	21.41	0
2	113982	21.51	0
2	114539	21.61	0
2	115096	21.71	0
2	115653	21.81	0
2	116210	21.91	0
2	116775	22.01	0
2	117332	22.11	0
2	117889	22.21	0
2	118446	22.31	0
2	119003	22.41	0
2	119560	22.51	0
2	120117	22.61	0
2	120674	22.71	0
2	121231	22.81	0
2	121788	22.91	0
2	122353	23.01	0
2	122910	23.11	0
2	123467	23.21	0
2	124024	23.31	0
2	124581	23.41	0
2	125138	23.51	0
2	125695	23.61	0
2	126252	23.71	0
2	126809	23.81	0
2	127366	23.91	0
2	127931	24.01	0
2	128488	24.11	0
2	129045	24.21	0
2	129602	24.31	0
2	130159	24.41	0
2	130716	24.51	0
2	131273	24.61	0
2	131830	24.71	0
2	132387	24.81	0
2	132944	24.91	0
2	133509	25.01	0
2	134066	25.11	0
2	134623	25.21	0
2	135180	25.31	0
2	135737	25.41	0
2	136294	25.51	0
2	136851	25.61	0
2	137408	25.71	0
2	137965	25.81	0
2	138522	25.91	0
2	139087	26.01	0
2	139644	26.11	0
2	140201	26.21	0
2	140758	26.31	0
2	141315	26.41	0
2	141872	26.51	0
2	142429	26.61	0
2	142986	26.71	0
2	143543	26.81	0
2	144100	26.91	0
2	144665	27.01	0
2	145222	27.11	0
2	145779	27.21	0
2	146336	27.31	0
2	146893	27.41	0
2	147450	27.51	0
2	148007	27.61	0
2	148564	27.71	0
2	149121	27.81	0
2	149678	27.91	0
2	150243	28.01	0
2	150800	28.11	0
2	151357	28.21	0
2	151914	28.31	0
2	152471	28.41	0
2	153028	28.51	0
2	153585	28.61	0
2	154142	28.71	0
2	154699	28.81	0
2	155256	28.91	0
2	155821	29.01	0
2	156378	29.11	0
2	156935	29.21	0
2	157492	29.31	0
2	158049	29.41	0
2	158606	29.51	0
2	159163	29.61	0
2	159720	29.71	0
2	160277	29.81	0
2	160834	29.91	0
2	161399	30.01	0
2	161956	30.11	0
2	162513	30.21	0
2	163070	30.31	0
2	163627	30.41	0
2	164184	30.51	0
2	164741	30.61	0
2	165298	30.71	0
2	165855	30.81	0
2	166412	30.91	0
2	166977	31.01	0
2	167534	31.11	0
2	168091	31.21	0
2	168648	31.31	0
2	169205	31.41	0
2	169762	31.51	0
2	170319	31.61	0
2	170876	31.71	0
2	171433	31.81	0
2	171990	31.91	0
2	172555	32.01	0
2	173112	32.11	0
2	173669	32.21	0
2	174226	32.31	0
2	174783	32.41	0
2	175340	32.51	0
2	175897	32.61	0
2	176454	32.71	0
2	177011	32.81	0
2	177568	32.91	0
2	178133	33.01	0
2	178690	33.11	0
2	179247	33.21	0
2	179804	33.31	0
2	180361	33.41	0
2	180918	33.51	0
2	181475	33.61	0
2	182032	33.71	0
2	182589	33.81	0
2	183146	33.91	0
2	183711	34.01	0
2	184268	34.11	0
2	184825	34.21	0
2	185382	34.31	0
2	185939	34.41	0
2	186496	34.51	0
2	187053	34.61	0
2	187610	34.71	0
2	188167	34.81	0
2	188724	34.91	0
2	189289	35.01	0
2	189846	35.11	0
2	190403	35.21	0
2	190960	35.31	0
2	191517	35.41	0
2	192074	35.51	0
2	192631	35.61	0
2	193188	35.71	0
2	193745	35.81	0
2	194302	35.91	0
2	194867	36.01	0
2	195424	36.11	0
2	195981	36.21	0
2	196538	36.31	0
2	197095	36.41	0
10	5168	2	0
10	10736	3	0
10	16304	4	0
10	21873	5	0
10	27450	6	0
10	33028	7	0
10	38606	8	0
10	44184	9	0
10	49762	10	0
10	55340	11	0
10	60918	12	0
10	66496	13	0
10	72074	14	0
10	77652	15	0
10	83230	16	0
10	88808	17	0
10	94386	18	0
10	99964	19	0
10	105542	20	0
10	111120	21	0
10	116698	22	0
10	122276	23	0
10	127854	24	0
10	133432	25	0
10	139010	26	0
10	144588	27	0
10	150166	28	0
10	155744	29	0
10	161322	30	0
10	166900	31	0
10	172478	32	0
10	178056	33	0
10	183634	34	0
10	189212	35	0
10	194790	36	0
9	5168	2	0.023297
9	10736	3	0.02625
9	16304	4	0.02625
9	21873	5	0.02625
9	27450	6	0.02625
9	33028	7	0.02625
9	38606	8	0.02625
9	44184	9	0.02625
9	49762	10	0.02625
9	55340	11	0.02625
9	60918	12	0.02625
9	66496	13	0.02625
9	72074	14	0.02625
9	77652	15	0.02625
9	83230	16	0.02625
9	88808	17	0.02625
9	94386	18	0.02625
9	99964	19	0.02625
9	105542	20	0.02625
9	111120	21	0.02625
9	116698	22	0.02625
9	122276	23	0.02625
9	127854	24	0.02625
9	133432	25	0.02625
9	139010	26	0.02625
9	144588	27	0.02625
9	150166	28	0.02625
9	155744	29	0.02625
9	161322	30	0.02625
9	166900	31	0.02625
9	172478	32	0.02625
9	178056	33	0.02625
9	183634	34	0.02625
9	189212	35	0.02625
9	194790	36	0.02625
8	5168	2	0
8	10736	3	0
8	16304	4	0
8	21873	5	0
8	27450	6	0
8	33028	7	0
8	38606	8	0
8	44184	9	0
8	49762	10	0
8	55340	11	0
8	60918	12	0
8	66496	13	0
8	72074	14	0
8	77652	15	0
8	83230	16	0
8	88808	17	0
8	94386	18	0
8	99964	19	0
8	105542	20	0
8	111120	21	0
8	116698	22	0
8	122276	23	0
8	127854	24	0
8	133432	25	0
8	139010	26	0
8	144588	27	0
8	150166	28	0
8	155744	29	0
8	161322	30	0
8	166900	31	0
8	172478	32	0
8	178056	33	0
8	183634	34	0
8	189212	35	0
8	194790	36	0
51	234	1.11	0
51	790	1.21	-6.2377866001384e-07
51	1346	1.31	-1.2298615671114e-06
51	1902	1.41	-1.1845089822771e-06
51	2458	1.51	-1.1263821322416e-06
51	3014	1.61	-1.0588786189203e-06
51	3570	1.71	-9.8494175844621e-07
51	4126	1.81	-9.0709135122324e-07
51	4682	1.91	-8.2745623288361e-07
51	5246	2.01	-7.4780769438121e-07
51	5802	2.11	-6.6959299545033e-07
51	6358	2.21	-5.9396863420602e-07
51	6914	2.31	-5.218327369505e-07
51	7470	2.41	-4.5385591562308e-07
51	8026	2.51	-3.9051082467267e-07
51	8582	2.61	-3.3209964485081e-07
51	9138	2.71	-2.7877974105195e-07
51	9694	2.81	-2.3058725730607e-07
51	10250	2.91	-1.8745846702473e-07
51	10814	3.01	-1.4924924428783e-07
51	11370	3.11	-1.1575211303239e-07
51	11926	3.21	-8.6711670093109e-08
51	12482	3.31	-6.1837941416343e-08
51	13038	3.41	-4.0817859456865e-08
51	13594	3.51	-2.3325087710191e-08
51	14150	3.61	-9.0283829479176e-09
51	14706	3.71	2.4014090627134e-09
51	15262	3.81	1.1285844294662e-08
51	15818	3.91	1.7934435021516e-08
51	16382	4.01	2.2641227133136e-08
51	16938	4.11	2.5682213475875e-08
51	17494	4.21	2.7313552237729e-08
51	18050	4.31	2.7770634716262e-08
51	18606	4.41	2.7267495852357e-08
51	19162	4.51	2.5996831851671e-08
51	19718	4.61	2.4130374498554e-08
51	20274	4.71	2.1819526523359e-08
51	20830	4.81	1.919631060332e-08
51	21386	4.91	1.6374452087575e-08
51	21951	5.01	1.3450533487003e-08
51	22508	5.11	1.0505469418831e-08
51	23065	5.21	0.17297130774569
51	23622	5.31	0.51203825957752
51	24179	5.41	0.83256420370473
51	24736	5.51	1.1254700897815
51	25293	5.61	1.3832121300665
51	25850	5.71	1.5050474349305
51	26407	5.81	1.50821143426
51	26964	5.91	1.509210546896
[...]
35	118339	22.297810747308	0.100011802096
35	118896	22.397809549503	0.099998802195
35	119453	22.497808351778	0.099998802275
35	120010	22.597807154105	0.099998802327
35	120567	22.697805956459	0.099998802354
35	121124	22.797804758809	0.09999880235
35	121681	22.897803561133	0.099998802324
35	122238	22.997802363412	0.099998802279
35	122803	23.097801165627	0.099998802215
35	123360	23.197799967762	0.099998802135
35	123917	23.297798769808	0.099998802046
35	124474	23.397810571756	0.100011801948
35	125031	23.497809373594	0.099998801838
35	125588	23.597808175316	0.099998801722
35	126145	23.697806976918	0.099998801602
35	126702	23.797805778396	0.099998801478
35	127259	23.897804579741	0.099998801345
35	127816	23.997803380952	0.099998801211
35	128381	24.097802182026	0.099998801074
35	128938	24.197800982959	0.099998800933
35	129495	24.29779978375	0.099998800791
35	130052	24.397798584394	0.099998800644
35	130609	24.497810384894	0.1000118005
35	131166	24.597809185248	0.099998800354
35	131723	24.697807985465	0.099998800217
35	132280	24.797806785559	0.099998800094
35	132837	24.897805585546	0.099998799987
35	133394	24.997804385448	0.099998799902
35	133959	25.097803185291	0.099998799843
35	134516	25.197801985102	0.099998799811
35	135073	25.297800784907	0.099998799805
35	135630	25.397799584732	0.099998799825
35	136187	25.497811384599	0.100011799867
35	136744	25.597810184524	0.099998799925
35	137301	25.697808984519	0.099998799995
35	137858	25.7978077846	0.099998800081
35	138415	25.897806584774	0.099998800174
35	138972	25.997805385051	0.099998800277
35	139537	26.097804185436	0.099998800385
35	140094	26.197802985936	0.0999988005
35	140651	26.297801786557	0.099998800621
35	141208	26.397800587303	0.099998800746
35	141765	26.497799388177	0.099998800874
35	142322	26.597811189181	0.100011801004
35	142879	26.69780999032	0.099998801139
35	143436	26.797808791597	0.099998801277
35	143993	26.897807593013	0.099998801416
35	144550	26.997806394569	0.099998801556
35	145115	27.097805196263	0.099998801694
35	145672	27.197803998087	0.099998801824
35	146229	27.297802800031	0.099998801944
35	146786	27.397801602075	0.099998802044
35	147343	27.497800404199	0.099998802124
35	147900	27.597799206375	0.099998802176
35	148457	27.697811008578	0.100011802203
35	149014	27.79780981078	0.099998802202
35	149571	27.897808612955	0.099998802175
35	150128	27.997807415084	0.099998802129
35	150693	28.097806217148	0.099998802064
35	151250	28.197805019136	0.099998801988
35	151807	28.297803821033	0.099998801897
35	152364	28.397802622829	0.099998801796
35	152921	28.497801424518	0.099998801689
35	153478	28.597800226092	0.099998801574
35	154035	28.697799027546	0.099998801454
35	154592	28.797810828872	0.100011801326
35	155149	28.897809630071	0.099998801199
35	155706	28.997808431134	0.099998801063
35	156271	29.097807232061	0.099998800927
35	156828	29.197806032845	0.099998800784
35	157385	29.29780483349	0.099998800645
35	157942	29.397803633987	0.099998800497
35	158499	29.497802434339	0.099998800352
35	159056	29.597801234547	0.099998800208
35	159613	29.697800034618	0.099998800071
35	160170	29.797798834565	0.099998799947
35	160727	29.897810634408	0.100011799843
35	161284	29.997809434167	0.099998799759
35	161849	30.097808233865	0.099998799698
35	162406	30.197807033533	0.099998799668
35	162963	30.297805833196	0.099998799663
35	163520	30.397804632879	0.099998799683
35	164077	30.497803432604	0.099998799725
35	164634	30.597802232389	0.099998799785
35	165191	30.697801032244	0.099998799855
35	165748	30.797799832185	0.099998799941
35	166305	30.897798632221	0.099998800036
35	166862	30.997810432358	0.100011800137
35	167427	31.097809232605	0.099998800247
35	167984	31.197808032967	0.099998800362
35	168541	31.29780683345	0.099998800483
35	169098	31.397805634059	0.099998800609
35	169655	31.497804434797	0.099998800738
35	170212	31.597803235667	0.09999880087
35	170769	31.69780203667	0.099998801003
35	171326	31.797800837812	0.099998801142
35	171883	31.897799639094	0.099998801282
35	172440	31.997811440517	0.100011801423
35	173005	32.097810242078	0.099998801561
35	173562	32.19780904377	0.099998801692
35	174119	32.297807845575	0.099998801805
35	174676	32.397806647467	0.099998801892
35	175233	32.497805449402	0.099998801935
35	175790	32.597804251321	0.099998801919
35	176347	32.697803053147	0.099998801826
35	176904	32.797801854788	0.099998801641
35	177461	32.89780065614	0.099998801352
35	178018	32.997799457081	0.099998800941
35	178583	33.097811257487	0.100011800406
35	179140	33.197810057224	0.099998799737
35	179697	33.297808856154	0.09999879893
35	180254	33.397807654132	0.099998797978
35	180811	33.497806451009	0.099998796877
35	181368	33.597805246637	0.099998795628
35	181925	33.697804040861	0.099998794224
35	182482	33.797802833532	0.099998792671
35	183039	33.897801624488	0.099998790956
35	183596	33.997800413577	0.099998789089
35	184161	34.097799200642	0.099998787065
35	184718	34.197810985525	0.100011784883
35	185275	34.297809768067	0.099998782542
35	185832	34.397808548116	0.099998780049
35	186389	34.497807325512	0.099998777396
35	186946	34.597806100104	0.099998774592
35	187503	34.697804871751	0.099998771647
35	188060	34.797803640319	0.099998768568
35	188617	34.897802405694	0.099998765375
35	189174	34.99780116778	0.099998762086
35	189739	35.097799926495	0.099998758715
35	190296	35.197798681783	0.099998755288
35	190853	35.297810433607	0.100011751824
35	191410	35.397809181943	0.099998748336
35	191967	35.497807926783	0.09999874484
35	192524	35.597806668128	0.099998741345
35	193081	35.69780540599	0.099998737862
35	193638	35.797804140386	0.099998734396
35	194195	35.897802871343	0.099998730957
35	194752	35.997801598892	0.099998727549
35	195317	36.097800323068	0.099998724176
35	195874	36.197799043912	0.099998720844
35	196431	36.297810761465	0.100011717553
35	196988	36.397809475775	0.09999871431
35	197545	36.49780818689	0.099998711115
36	1238	1.297802501039	0.099998800554
36	1794	1.397801301593	0.099998800554
36	2350	1.497800102147	0.099998800554
36	2906	1.597798902701	0.099998800554
36	3462	1.697810703255	0.100011800554
36	4018	1.797809503809	0.099998800554
36	4574	1.897808304363	0.099998800554
36	5130	1.997807104917	0.099998800554
36	5694	2.097805905471	0.099998800554
36	6250	2.197804706025	0.099998800554
36	6806	2.297803506579	0.099998800554
36	7362	2.397802307133	0.099998800554
36	7918	2.497801107687	0.099998800554
36	8474	2.597799908241	0.099998800554
36	9030	2.697798708795	0.099998800554
36	9586	2.797810509349	0.100011800554
36	10142	2.897809309903	0.099998800554
36	10698	2.997808110457	0.099998800554
36	11262	3.097806911011	0.099998800554
36	11818	3.197805711565	0.099998800554
36	12374	3.297804512119	0.099998800554
36	12930	3.397803312673	0.099998800554
36	13486	3.497802113227	0.099998800554
36	14042	3.597800913781	0.099998800554
36	14598	3.697799714335	0.099998800554
36	15154	3.797811514889	0.100011800554
36	15710	3.897810315443	0.099998800554
36	16266	3.997809115997	0.099998800554
36	16830	4.097807916551	0.099998800554
36	17386	4.197806717105	0.099998800554
36	17942	4.297805517659	0.099998800554
36	18498	4.397804318213	0.099998800554
36	19054	4.497803118767	0.099998800554
36	19610	4.597801919321	0.099998800554
36	20166	4.697800719875	0.099998800554
36	20722	4.797799520429	0.099998800554
36	21278	4.897811320983	0.100011800554
36	21834	4.997810121537	0.099998800554
36	22399	5.097808922091	0.099998800554
36	22956	5.197807722646	0.099998800555
36	23513	5.297806523208	0.099998800562
36	24070	5.397805323783	0.099998800575
36	24627	5.497804124386	0.099998800603
36	25184	5.597802925035	0.099998800649
36	25741	5.697801725749	0.099998800714
36	26298	5.797800526541	0.099998800792
36	26855	5.897799327428	0.099998800887
36	27412	5.997811128423	0.100011800995
36	27977	6.097809929533	0.09999880111
36	28534	6.19780873077	0.099998801237
36	29091	6.297807532138	0.099998801368
36	29648	6.397806333644	0.099998801506
36	30205	6.497805135293	0.099998801649
36	30762	6.59780393709	0.099998801797
36	31319	6.697802739038	0.099998801948
36	31876	6.79780154113	0.099998802092
36	32433	6.897800343368	0.099998802238
36	32990	6.997799145739	0.099998802371
36	33555	7.09781094823	0.100011802491
36	34112	7.197809750824	0.099998802594
36	34669	7.297808553499	0.099998802675
36	35226	7.397807356235	0.099998802736
36	35783	7.497806159004	0.099998802769
36	36340	7.597804961781	0.099998802777
36	36897	7.697803764543	0.099998802762
36	37454	7.79780256727	0.099998802727
36	38011	7.897801369947	0.099998802677
36	38568	7.997800172557	0.09999880261
36	39133	8.097798975092	0.099998802535
36	39690	8.197810777541	0.100011802449
36	40247	8.297809579896	0.099998802355
36	40804	8.397808382148	0.099998802252
36	41361	8.497807184295	0.099998802147
36	41918	8.59780598633	0.099998802035
36	42475	8.69780478825	0.09999880192
36	43032	8.797803590048	0.099998801798
36	43589	8.897802391721	0.099998801673
36	44146	8.997801193269	0.099998801548
36	44711	9.097799994686	0.099998801417
36	45268	9.197798795971	0.099998801285
36	45825	9.297810597122	0.100011801151
36	46382	9.397809398137	0.099998801015
36	46939	9.497808199011	0.099998800874
36	47496	9.597806999746	0.099998800735
36	48053	9.697805800343	0.099998800597
36	48610	9.797804600815	0.099998800472
36	49167	9.897803401173	0.099998800358
36	49724	9.997802201438	0.099998800265
36	50289	10.097801001632	0.099998800194
36	50846	10.197799801782	0.09999880015
36	51403	10.297798601915	0.099998800133
36	51960	10.397810402059	0.100011800144
36	52517	10.497809202235	0.099998800176
36	53074	10.597808002465	0.09999880023
36	53631	10.697806802764	0.099998800299
36	54188	10.797805603147	0.099998800383
36	54745	10.897804403621	0.099998800474
36	55302	10.997803204199	0.099998800578
36	55867	11.097802004889	0.09999880069
36	56424	11.197800805692	0.099998800803
36	56981	11.297799606621	0.099998800929
36	57538	11.397811407675	0.100011801054
36	58095	11.497810208861	0.099998801186
36	58652	11.597809010184	0.099998801323
36	59209	11.697807811642	0.099998801458
36	59766	11.797806613242	0.0999988016
36	60323	11.897805414983	0.099998801741
36	60880	11.997804216867	0.099998801884
36	61445	12.097803018891	0.099998802024
36	62002	12.197801821047	0.099998802156
36	62559	12.297800623322	0.099998802275
36	63116	12.397799425697	0.099998802375
36	63673	12.497811228149	0.100011802452
36	64230	12.597810030653	0.099998802504
36	64787	12.697808833181	0.099998802528
36	65344	12.797807635705	0.099998802524
36	65901	12.897806438205	0.0999988025
36	66458	12.997805240658	0.099998802453
36	67023	13.097804043049	0.099998802391
36	67580	13.197802845363	0.099998802314
36	68137	13.297801647589	0.099998802226
36	68694	13.39780044972	0.099998802131
36	69251	13.497799251744	0.099998802024
36	69808	13.597811053658	0.100011801914
36	70365	13.697809855457	0.099998801799
36	70922	13.79780865713	0.099998801673
36	71479	13.897807458678	0.099998801548
36	72036	13.997806260097	0.099998801419
36	72601	14.097805061381	0.099998801284
36	73158	14.197803862528	0.099998801147
36	73715	14.297802663539	0.099998801011
36	74272	14.397801464405	0.099998800866
36	74829	14.497800265131	0.099998800726
36	75386	14.597799065714	0.099998800583
36	75943	14.697810866163	0.100011800449
36	76500	14.797809666491	0.099998800328
36	77057	14.897808466713	0.099998800222
36	77614	14.997807266854	0.099998800141
36	78179	15.097806066936	0.099998800082
36	78736	15.197804866987	0.099998800051
36	79293	15.297803667035	0.099998800048
36	79850	15.397802467103	0.099998800068
36	80407	15.497801267215	0.099998800112
36	80964	15.597800067385	0.09999880017
36	81521	15.697798867629	0.099998800244
36	82078	15.79781066796	0.100011800331
36	82635	15.897809468387	0.099998800427
36	83192	15.997808268919	0.099998800532
36	83757	16.097807069561	0.099998800642
36	84314	16.19780587032	0.099998800759
36	84871	16.297804671202	0.099998800882
36	85428	16.397803472209	0.099998801007
36	85985	16.497802273346	0.099998801137
36	86542	16.597801074617	0.099998801271
36	87099	16.697799876027	0.09999880141
36	87656	16.797798677573	0.099998801546
36	88213	16.897810479259	0.100011801686
36	88770	16.997809281089	0.09999880183
36	89335	17.09780808306	0.099998801971
36	89892	17.197806885163	0.099998802103
36	90449	17.297805687385	0.099998802222
36	91006	17.397804489709	0.099998802324
36	91563	17.497803292111	0.099998802402
36	92120	17.597802094568	0.099998802457
36	92677	17.69780089705	0.099998802482
36	93234	17.797799699532	0.099998802482
36	93791	17.897811501989	0.100011802457
36	94348	17.997810304399	0.09999880241
36	94913	18.097809106747	0.099998802348
36	95470	18.197807909018	0.099998802271
36	96027	18.297806711198	0.09999880218
36	96584	18.397805513281	0.099998802083
36	97141	18.497804315256	0.099998801975
36	97698	18.597803117116	0.09999880186
36	98255	18.697801918858	0.099998801742
36	98812	18.797800720474	0.099998801616
36	99369	18.89779952196	0.099998801486
36	99926	18.997811323314	0.100011801354
36	100491	19.09781012453	0.099998801216
36	101048	19.197808925606	0.099998801076
36	101605	19.29780772654	0.099998800934
36	102162	19.39780652733	0.09999880079
36	102719	19.497805327973	0.099998800643
36	103276	19.597804128472	0.099998800499
36	103833	19.697802928836	0.099998800364
36	104390	19.797801729076	0.09999880024
36	104947	19.897800529209	0.099998800133
36	105504	19.997799329258	0.099998800049
36	106069	20.097811129248	0.10001179999
36	106626	20.197809929208	0.09999879996
36	107183	20.297808729163	0.099998799955
36	107740	20.397807529139	0.099998799976
36	108297	20.497806329155	0.099998800016
36	108854	20.597805129229	0.099998800074
36	109411	20.697803929375	0.099998800146
36	109968	20.797802729605	0.09999880023
36	110525	20.897801529927	0.099998800322
36	111082	20.997800330354	0.099998800427
36	111647	21.097799130891	0.099998800537
36	112204	21.197810931544	0.100011800653
36	112761	21.297809732316	0.099998800772
36	113318	21.397808533212	0.099998800896
36	113875	21.497807334235	0.099998801023
36	114432	21.597806135392	0.099998801157
36	114989	21.697804936683	0.099998801291
36	115546	21.797803738111	0.099998801428
36	116103	21.897802539681	0.09999880157
36	116660	21.997801341388	0.099998801707
36	117225	22.097800143235	0.099998801847
36	117782	22.197798945212	0.099998801977
36	118339	22.297810747308	0.100011802096
36	118896	22.397809549503	0.099998802195
36	119453	22.497808351778	0.099998802275
36	120010	22.597807154105	0.099998802327
36	120567	22.697805956459	0.099998802354
36	121124	22.797804758809	0.09999880235
36	121681	22.897803561133	0.099998802324
36	122238	22.997802363412	0.099998802279
36	122803	23.097801165627	0.099998802215
36	123360	23.197799967762	0.099998802135
36	123917	23.297798769808	0.099998802046
36	124474	23.397810571756	0.100011801948
36	125031	23.497809373594	0.099998801838
36	125588	23.597808175316	0.099998801722
36	126145	23.697806976918	0.099998801602
36	126702	23.797805778396	0.099998801478
36	127259	23.897804579741	0.099998801345
36	127816	23.997803380952	0.099998801211
36	128381	24.097802182026	0.099998801074
36	128938	24.197800982959	0.099998800933
36	129495	24.29779978375	0.099998800791
36	130052	24.397798584394	0.099998800644
36	130609	24.497810384894	0.1000118005
36	131166	24.597809185248	0.099998800354
36	131723	24.697807985465	0.099998800217
36	132280	24.797806785559	0.099998800094
36	132837	24.897805585546	0.099998799987
36	133394	24.997804385448	0.099998799902
36	133959	25.097803185291	0.099998799843
36	134516	25.197801985102	0.099998799811
36	135073	25.297800784907	0.099998799805
36	135630	25.397799584732	0.099998799825
36	136187	25.497811384599	0.100011799867
36	136744	25.597810184524	0.099998799925
36	137301	25.697808984519	0.099998799995
36	137858	25.7978077846	0.099998800081
36	138415	25.897806584774	0.099998800174
36	138972	25.997805385051	0.099998800277
36	139537	26.097804185436	0.099998800385
36	140094	26.197802985936	0.0999988005
36	140651	26.297801786557	0.099998800621
36	141208	26.397800587303	0.099998800746
36	141765	26.497799388177	0.099998800874
36	142322	26.597811189181	0.100011801004
36	142879	26.69780999032	0.099998801139
36	143436	26.797808791597	0.099998801277
36	143993	26.897807593013	0.099998801416
36	144550	26.997806394569	0.099998801556
36	145115	27.097805196263	0.099998801694
36	145672	27.197803998087	0.099998801824
36	146229	27.297802800031	0.099998801944
36	146786	27.397801602075	0.099998802044
36	147343	27.497800404199	0.099998802124
36	147900	27.597799206375	0.099998802176
36	148457	27.697811008578	0.100011802203
36	149014	27.79780981078	0.099998802202
36	149571	27.897808612955	0.099998802175
36	150128	27.997807415084	0.099998802129
36	150693	28.097806217148	0.099998802064
36	151250	28.197805019136	0.099998801988
36	151807	28.297803821033	0.099998801897
36	152364	28.397802622829	0.099998801796
36	152921	28.497801424518	0.099998801689
36	153478	28.597800226092	0.099998801574
36	154035	28.697799027546	0.099998801454
36	154592	28.797810828872	0.100011801326
36	155149	28.897809630071	0.099998801199
36	155706	28.997808431134	0.099998801063
36	156271	29.097807232061	0.099998800927
36	156828	29.197806032845	0.099998800784
36	157385	29.29780483349	0.099998800645
36	157942	29.397803633987	0.099998800497
36	158499	29.497802434339	0.099998800352
36	159056	29.597801234547	0.099998800208
36	159613	29.697800034618	0.099998800071
36	160170	29.797798834565	0.099998799947
36	160727	29.897810634408	0.100011799843
36	161284	29.997809434167	0.099998799759
36	161849	30.097808233865	0.099998799698
36	162406	30.197807033533	0.099998799668
36	162963	30.297805833196	0.099998799663
36	163520	30.397804632879	0.099998799683
36	164077	30.497803432604	0.099998799725
36	164634	30.597802232389	0.099998799785
36	165191	30.697801032244	0.099998799855
36	165748	30.797799832185	0.099998799941
36	166305	30.897798632221	0.099998800036
36	166862	30.997810432358	0.100011800137
36	167427	31.097809232605	0.099998800247
36	167984	31.197808032967	0.099998800362
36	168541	31.29780683345	0.099998800483
36	169098	31.397805634059	0.099998800609
36	169655	31.497804434797	0.099998800738
36	170212	31.597803235667	0.09999880087
36	170769	31.69780203667	0.099998801003
36	171326	31.797800837812	0.099998801142
36	171883	31.897799639094	0.099998801282
36	172440	31.997811440517	0.100011801423
36	173005	32.097810242078	0.099998801561
36	173562	32.19780904377	0.099998801692
36	174119	32.297807845575	0.099998801805
36	174676	32.397806647467	0.099998801892
36	175233	32.497805449402	0.099998801935
36	175790	32.597804251321	0.099998801919
36	176347	32.697803053147	0.099998801826
36	176904	32.797801854788	0.099998801641
36	177461	32.89780065614	0.099998801352
36	178018	32.997799457081	0.099998800941
36	178583	33.097811257487	0.100011800406
36	179140	33.197810057224	0.099998799737
36	179697	33.297808856154	0.09999879893
36	180254	33.397807654132	0.099998797978
36	180811	33.497806451009	0.099998796877
36	181368	33.597805246637	0.099998795628
36	181925	33.697804040861	0.099998794224
36	182482	33.797802833532	0.099998792671
36	183039	33.897801624488	0.099998790956
36	183596	33.997800413577	0.099998789089
36	184161	34.097799200642	0.099998787065
36	184718	34.197810985525	0.100011784883
36	185275	34.297809768067	0.099998782542
36	185832	34.397808548116	0.099998780049
36	186389	34.497807325512	0.099998777396
36	186946	34.597806100104	0.099998774592
36	187503	34.697804871751	0.099998771647
36	188060	34.797803640319	0.099998768568
36	188617	34.897802405694	0.099998765375
36	189174	34.99780116778	0.099998762086
36	189739	35.097799926495	0.099998758715
36	190296	35.197798681783	0.099998755288
36	190853	35.297810433607	0.100011751824
36	191410	35.397809181943	0.099998748336
36	191967	35.497807926783	0.09999874484
36	192524	35.597806668128	0.099998741345
36	193081	35.69780540599	0.099998737862
36	193638	35.797804140386	0.099998734396
36	194195	35.897802871343	0.099998730957
36	194752	35.997801598892	0.099998727549
36	195317	36.097800323068	0.099998724176
36	195874	36.197799043912	0.099998720844
36	196431	36.297810761465	0.100011717553
36	196988	36.397809475775	0.09999871431
36	197545	36.49780818689	0.099998711115
