file 1005474 1501601613                                         
version 2
run SinusoidalJammingDetail-409-20170801-17:33:13-50133
attr CACCSpacing 11
attr attackAcc -30
attr attackPos 7
attr attackSpeed 150
attr attackStart 31.5
attr attacker 1
attr beaconInterval 0.1
attr configname SinusoidalJammingDetail
attr controller 1
attr datetime 20170801-17:33:13
attr experiment SinusoidalJammingDetail
attr fakeAcc "(1 == 4)"
attr fakePos "(1 == 2)"
attr fakeSpeed "(1 == 3)"
attr inifile omnetpp_409.ini
attr iterationvars "$leaderSpeed=100, $controller=1, $CACCSpacing=11, $sController=\"CACC\", $attacker=1, $attackStart=31.5, $attackSpeed=150, $attackPos=7, $attackAcc=-30, $0=11, $1=0, $nCars=8, $platoonSize=8, $nLanes=1, $beaconInterval=0.1, $priority=2, $packetSize=200, $ploegH=0.5, $leaderHeadway=1.2, $fakeSpeed=(1 == 3), $fakeAcc=(1 == 4), $fakePos=(1 == 2)"
attr iterationvarsf leaderSpeed=100,controller=1,CACCSpacing=11,sController=CACC,attacker=1,attackStart=31.5,attackSpeed=150,attackPos=7,attackAcc=-30,11,0,nCars=8,platoonSize=8,nLanes=1,beaconInterval=0.1,priority=2,packetSize=200,ploegH=0.5,leaderHeadway=1.2,fakeSpeed=(1_==_3),fakeAcc=(1_==_4),fakePos=(1_==_2)-
attr leaderHeadway 1.2
attr leaderSpeed 100
attr measurement "$leaderSpeed=100, $controller=1, $CACCSpacing=11, $sController=\"CACC\", $attacker=1, $attackStart=31.5, $attackSpeed=150, $attackPos=7, $attackAcc=-30, $0=11, $1=0, $nCars=8, $platoonSize=8, $nLanes=1, $beaconInterval=0.1, $priority=2, $packetSize=200, $ploegH=0.5, $leaderHeadway=1.2, $fakeSpeed=(1 == 3), $fakeAcc=(1 == 4), $fakePos=(1 == 2)"
attr nCars 8
attr nLanes 1
attr network scenario
attr packetSize 200
attr platoonSize 8
attr ploegH 0.5
attr priority 2
attr processid 50133
attr repetition 4
attr replication #4
attr resultdir results
attr runnumber 409
attr sController "\"CACC\""
attr seedset 4
param **.coreDebug false
param **.debug false
param **.headway 0.1s
param **.numberOfCars 8
param **.numberOfCarsPerPlatoon 8
param **.numberOfLanes 1
param **.numericController 1
param **.traffic.nCars 8
param **.traffic.nLanes 1
param **.traffic.platoonInsertDistance 11m
param **.traffic.platoonInsertHeadway 0s
param **.traffic.platoonInsertSpeed 100kmph
param **.traffic.platoonInsertTime "1 s"
param **.traffic.platoonLeaderHeadway 1.2s
param **.traffic.platoonSize 8
param **.traffic.platooningVType "\"vtypeauto\""
param **.traffic_type "\"PlatoonsTrafficManager\""
param *.**.nic.mac1609_4.bitrate 6Mbps
param *.**.nic.mac1609_4.txPower 100mW
param *.**.nic.mac1609_4.useServiceChannel false
param *.**.nic.phy80211p.analogueModels "xmldoc(\"config.xml\")"
param *.**.nic.phy80211p.decider "xmldoc(\"config.xml\")"
param *.**.nic.phy80211p.maxTXPower 100mW
param *.**.nic.phy80211p.sensitivity -94dBm
param *.**.nic.phy80211p.thermalNoise -95dBm
param *.**.nic.phy80211p.usePropagationDelay true
param *.**.nic.phy80211p.useThermalNoise true
param *.annotations.draw false
param *.connectionManager.alpha 2.0
param *.connectionManager.carrierFrequency "5.890e9 Hz"
param *.connectionManager.pMax 100mW
param *.connectionManager.sat -94dBm
param *.connectionManager.sendDirect true
param *.manager.autoShutdown true
param *.manager.commandLine "\"sumo --remote-port $port --seed $seed --configuration-file $configFile\""
param *.manager.configFile "\"./sumocfg/freeway.sumo.cfg\""
param *.manager.host "\"localhost\""
param *.manager.margin 25
param *.manager.moduleDisplayString "\"\""
param *.manager.moduleName "\"node\""
param *.manager.moduleType "\"Car\""
param *.manager.updateInterval 0.01s
param *.node[*].appl.attackStart 31.5s
param *.node[*].appl.attackerType 1
param *.node[*].appl.simulationDuration "60 s"
param *.node[*].appl_type "\"SimplePlatooningApp\""
param *.node[*].helper.nCars 8
param *.node[*].helper.nLanes 1
param *.node[*].helper.platoonSize 8
param *.node[*].helper_type "\"PositionHelper\""
param *.node[*].mobility.x 0
param *.node[*].mobility.y 0
param *.node[*].mobility.z 1.895
param *.node[*].prot.attackStart 31.5s
param *.node[*].prot.attackerType 1
param *.node[*].prot.attackingNode 3
param *.node[*].prot.beaconingInterval 0.1s
param *.node[*].prot.fakeAcc "(1 == 4)"
param *.node[*].prot.fakePos "(1 == 2)"
param *.node[*].prot.fakeSpeed "(1 == 3)"
param *.node[*].prot.maliciousAcc "-30 mpss"
param *.node[*].prot.maliciousSpeed 150kmph
param *.node[*].prot.packetSize 200
param *.node[*].prot.priority 2
param *.node[*].prot.shiftX "7 m"
param *.node[*].prot.useControllerAcceleration true
param *.node[*].protocol_type "\"SimplePlatooningBeaconing\""
param *.node[*].scenario.accHeadway 0.1s
param *.node[*].scenario.caccC1 0.5
param *.node[*].scenario.caccOmegaN "0.2 Hz"
param *.node[*].scenario.caccSpacing 11m
param *.node[*].scenario.caccXi 1
param *.node[*].scenario.controller "\"CACC\""
param *.node[*].scenario.engineTau "0.5 s"
param *.node[*].scenario.leaderHeadway 1.2s
param *.node[*].scenario.leaderOscillationFrequency "0.2 Hz"
param *.node[*].scenario.leaderSpeed 100kmph
param *.node[*].scenario.oscillationAmplitude "10 kmph"
param *.node[*].scenario.ploegH 0.5s
param *.node[*].scenario.ploegKd 0.7
param *.node[*].scenario.ploegKp 0.2
param *.node[*].scenario.startOscillating "5 s"
param *.node[*].scenario.useRealisticEngine false
param *.node[*].scenario_type "\"SinusoidalScenario\""
param *.node[*].unicast.packetLossRate 0
param *.obstacles.debug false
param *.playgroundSizeX 65000m
param *.playgroundSizeY 25000m
param *.playgroundSizeZ 50m
param *.world.use2D false
param *.world.useTorus false

vector 0  scenario.node[0].appl  distance  ETV
vector 1  scenario.node[0].appl  relativeSpeed  ETV
vector 2  scenario.node[0].appl  nodeId  ETV
vector 6  scenario.node[0].appl  acceleration  ETV
vector 7  scenario.node[0].appl  controllerAcceleration  ETV
vector 3  scenario.node[0].appl  speed  ETV
vector 4  scenario.node[0].appl  posx  ETV
vector 5  scenario.node[0].appl  posy  ETV
vector 22  scenario.node[1].appl  distance  ETV
vector 23  scenario.node[1].appl  relativeSpeed  ETV
vector 24  scenario.node[1].appl  nodeId  ETV
vector 28  scenario.node[1].appl  acceleration  ETV
vector 29  scenario.node[1].appl  controllerAcceleration  ETV
vector 25  scenario.node[1].appl  speed  ETV
vector 26  scenario.node[1].appl  posx  ETV
vector 27  scenario.node[1].appl  posy  ETV
vector 44  scenario.node[2].appl  distance  ETV
vector 45  scenario.node[2].appl  relativeSpeed  ETV
vector 46  scenario.node[2].appl  nodeId  ETV
vector 50  scenario.node[2].appl  acceleration  ETV
vector 51  scenario.node[2].appl  controllerAcceleration  ETV
vector 47  scenario.node[2].appl  speed  ETV
vector 48  scenario.node[2].appl  posx  ETV
vector 49  scenario.node[2].appl  posy  ETV
vector 66  scenario.node[3].appl  distance  ETV
vector 67  scenario.node[3].appl  relativeSpeed  ETV
vector 68  scenario.node[3].appl  nodeId  ETV
vector 72  scenario.node[3].appl  acceleration  ETV
vector 73  scenario.node[3].appl  controllerAcceleration  ETV
vector 69  scenario.node[3].appl  speed  ETV
vector 70  scenario.node[3].appl  posx  ETV
vector 71  scenario.node[3].appl  posy  ETV
vector 88  scenario.node[4].appl  distance  ETV
vector 89  scenario.node[4].appl  relativeSpeed  ETV
vector 90  scenario.node[4].appl  nodeId  ETV
vector 94  scenario.node[4].appl  acceleration  ETV
vector 95  scenario.node[4].appl  controllerAcceleration  ETV
vector 91  scenario.node[4].appl  speed  ETV
vector 92  scenario.node[4].appl  posx  ETV
vector 93  scenario.node[4].appl  posy  ETV
vector 110  scenario.node[5].appl  distance  ETV
vector 111  scenario.node[5].appl  relativeSpeed  ETV
vector 112  scenario.node[5].appl  nodeId  ETV
vector 116  scenario.node[5].appl  acceleration  ETV
vector 117  scenario.node[5].appl  controllerAcceleration  ETV
vector 113  scenario.node[5].appl  speed  ETV
vector 114  scenario.node[5].appl  posx  ETV
vector 115  scenario.node[5].appl  posy  ETV
vector 132  scenario.node[6].appl  distance  ETV
vector 133  scenario.node[6].appl  relativeSpeed  ETV
vector 134  scenario.node[6].appl  nodeId  ETV
vector 138  scenario.node[6].appl  acceleration  ETV
vector 139  scenario.node[6].appl  controllerAcceleration  ETV
vector 135  scenario.node[6].appl  speed  ETV
vector 136  scenario.node[6].appl  posx  ETV
vector 137  scenario.node[6].appl  posy  ETV
vector 154  scenario.node[7].appl  distance  ETV
vector 155  scenario.node[7].appl  relativeSpeed  ETV
vector 156  scenario.node[7].appl  nodeId  ETV
vector 160  scenario.node[7].appl  acceleration  ETV
vector 161  scenario.node[7].appl  controllerAcceleration  ETV
vector 157  scenario.node[7].appl  speed  ETV
vector 158  scenario.node[7].appl  posx  ETV
vector 159  scenario.node[7].appl  posy  ETV
vector 102  scenario.node[4].prot  frontDelay  ETV
vector 100  scenario.node[4].prot  frontDelayId  ETV
vector 35  scenario.node[1].prot  leaderDelay  ETV
vector 33  scenario.node[1].prot  leaderDelayId  ETV
vector 36  scenario.node[1].prot  frontDelay  ETV
vector 34  scenario.node[1].prot  frontDelayId  ETV
vector 57  scenario.node[2].prot  leaderDelay  ETV
vector 55  scenario.node[2].prot  leaderDelayId  ETV
vector 79  scenario.node[3].prot  leaderDelay  ETV
vector 77  scenario.node[3].prot  leaderDelayId  ETV
vector 101  scenario.node[4].prot  leaderDelay  ETV
vector 99  scenario.node[4].prot  leaderDelayId  ETV
vector 123  scenario.node[5].prot  leaderDelay  ETV
vector 121  scenario.node[5].prot  leaderDelayId  ETV
vector 145  scenario.node[6].prot  leaderDelay  ETV
vector 143  scenario.node[6].prot  leaderDelayId  ETV
vector 167  scenario.node[7].prot  leaderDelay  ETV
vector 165  scenario.node[7].prot  leaderDelayId  ETV
vector 80  scenario.node[3].prot  frontDelay  ETV
vector 78  scenario.node[3].prot  frontDelayId  ETV
vector 146  scenario.node[6].prot  frontDelay  ETV
vector 144  scenario.node[6].prot  frontDelayId  ETV
vector 58  scenario.node[2].prot  frontDelay  ETV
vector 56  scenario.node[2].prot  frontDelayId  ETV
vector 124  scenario.node[5].prot  frontDelay  ETV
vector 122  scenario.node[5].prot  frontDelayId  ETV
vector 168  scenario.node[7].prot  frontDelay  ETV
vector 166  scenario.node[7].prot  frontDelayId  ETV
vector 8  scenario.node[0].prot  nodeId  ETV
vector 9  scenario.node[0].prot  busyTime  ETV
vector 10  scenario.node[0].prot  collisions  ETV
vector 30  scenario.node[1].prot  nodeId  ETV
vector 31  scenario.node[1].prot  busyTime  ETV
vector 32  scenario.node[1].prot  collisions  ETV
vector 52  scenario.node[2].prot  nodeId  ETV
vector 53  scenario.node[2].prot  busyTime  ETV
vector 54  scenario.node[2].prot  collisions  ETV
vector 74  scenario.node[3].prot  nodeId  ETV
vector 75  scenario.node[3].prot  busyTime  ETV
vector 76  scenario.node[3].prot  collisions  ETV
vector 96  scenario.node[4].prot  nodeId  ETV
vector 97  scenario.node[4].prot  busyTime  ETV
vector 98  scenario.node[4].prot  collisions  ETV
vector 118  scenario.node[5].prot  nodeId  ETV
vector 119  scenario.node[5].prot  busyTime  ETV
vector 120  scenario.node[5].prot  collisions  ETV
vector 140  scenario.node[6].prot  nodeId  ETV
vector 141  scenario.node[6].prot  busyTime  ETV
vector 142  scenario.node[6].prot  collisions  ETV
vector 162  scenario.node[7].prot  nodeId  ETV
vector 163  scenario.node[7].prot  busyTime  ETV
vector 164  scenario.node[7].prot  collisions  ETV
7	11253 8384 232 197095 1.11 36.41 354 -1.5 1.5 7.8220233315939 570.85883090751
6	19637 11123 232 197095 1.11 36.41 354 -1.4722746794938 1.451340770512 0.041511446853448 380.97715317527
5	30760 7146 232 197095 1.11 36.41 354 36.55 36.55 12938.7 472909.485
4	37906 10654 232 197095 1.11 36.41 354 154.05297775242 1137.632618655 229236.48381705 177179681.83003
3	48560 10649 232 197095 1.11 36.41 354 26.487975689908 29.742492528104 9863.5653934116 275094.47445798
1	59209 5730 232 197095 1.11 36.41 354 0 0 0 0
0	64939 6084 232 197095 1.11 36.41 354 -1 -1 -354 354
2	71023 5730 232 197095 1.11 36.41 354 0 0 0 0
10	76753 499 5234 194856 2 36 35 0 0 0 0
9	77252 675 5234 194856 2 36 35 0.023625 0.02625 0.916125 0.023986265625
8	77927 464 5234 194856 2 36 35 0 0 0 0
51	78391 11393 234 197097 1.11 36.41 354 -1.5169291874388 1.5151528893525 38.942069944517 512.37210939521
50	89784 11453 234 197097 1.11 36.41 354 -1.474469214601 1.4486483627909 38.170417186405 356.09500713606
49	101237 7500 234 197097 1.11 36.41 354 36.55 36.55 12938.7 472909.485
48	108737 10998 234 197097 1.11 36.41 354 124.05297775269 1119.9064844733 218800.4296571 164144201.80589
47	119735 10996 234 197097 1.11 36.41 354 26.489807071192 31.589383250092 9987.6477826438 282323.95572834
45	130731 12093 234 197097 1.11 36.41 354 -0.72948207785719 0.016164858543839 -13.166815588646 6.3345012631125
44	142824 10988 234 197097 1.11 36.41 354 9.7544208319321 11.043060138527 3878.6589246138 42508.080619684
46	153812 6084 234 197097 1.11 36.41 354 2 2 708 1416
58	159896 14075 1176 196926 1.281932951349 36.381927863711 352 0.099998995212 0.100012102799 35.199994013123 3.5199988064052
57	173971 14075 970 196720 1.241823551072 36.341818479694 352 0.099998996243 0.100012102658 35.199994029383 3.5199988096567
56	188046 9532 1176 196926 1.281932951349 36.381927863711 352 2 2 704 1408
55	197578 9536 970 196720 1.241823551072 36.341818479694 352 2 2 704 1408
54	207114 499 5236 194858 2 36 35 0 0 0 0
53	207613 710 5236 194858 2 36 35 0.023625 0.02625 0.916125 0.023986265625
52	208323 499 5236 194858 2 36 35 2 2 70 140
73	208822 11405 235 197098 1.11 36.41 354 -1.4985212089264 1.4980940713731 44.157161275684 506.06393873557
72	220227 11463 235 197098 1.11 36.41 354 -1.4637937971386 1.4376572545228 42.712669170873 356.49474276334
71	231690 7500 235 197098 1.11 36.41 354 36.55 36.55 12938.7 472909.485
70	239190 11008 235 197098 1.11 36.41 354 109.05297775269 1105.5922232051 213498.22912647 157677463.2341
69	250198 10997 235 197098 1.11 36.41 354 26.49929006903 32.035491171043 9994.662724533 282761.71374557
67	261195 12196 235 197098 1.11 36.41 354 -0.44723369508974 0.013757099034954 -7.3966460610005 2.1110256214647
66	273391 10992 235 197098 1.11 36.41 354 10.323183426668 11.038741784827 3886.3408294658 42668.66242021
68	284383 6084 235 197098 1.11 36.41 354 3 3 1062 3186
80	290467 14066 1040 196790 1.262750601107 36.362758527515 352 0.099998996098 0.100012102669 35.200007027169 3.5200014093581
79	304533 14063 976 196726 1.241823601107 36.341818527544 352 0.0999989961 0.100012102657 35.199994027198 3.5199988092197
78	318596 9521 1040 196790 1.262750601107 36.362758527515 352 3 3 1056 3168
77	328117 9529 976 196726 1.241823601107 36.341818527544 352 3 3 1056 3168
76	337646 499 5237 194859 2 36 35 0 0 0 0
75	338145 710 5237 194859 2 36 35 0.023625 0.02625 0.916125 0.023986265625
74	338855 499 5237 194859 2 36 35 3 3 105 315
95	339354 11382 236 197099 1.11 36.41 354 -1.4920639078548 1.492297991817 47.191086522075 502.13046529661
94	350736 11456 236 197099 1.11 36.41 354 -1.4606979511044 1.4336101310143 45.409613252866 358.6939255328
93	362192 7500 236 197099 1.11 36.41 354 36.55 36.55 12938.7 472909.485
92	369692 10998 236 197099 1.11 36.41 354 94.052977752686 1090.9034922574 208190.16314464 151357404.17854
91	380690 11003 236 197099 1.11 36.41 354 26.503753956142 32.299858635681 9997.8691041581 282966.73586061
89	391693 11999 236 197099 1.11 36.41 354 -0.26709949186617 0.025327724852733 -3.6335063168478 0.75313220219369
88	403692 10982 236 197099 1.11 36.41 354 10.694018296998 11.054501692279 3892.1301094285 42793.54493694
90	414674 6084 236 197099 1.11 36.41 354 4 4 1416 5664
102	420758 14415 904 196654 1.240526350934 36.340534360825 352 0.099998998969 0.100012102534 35.200007110652 3.5200014260551
101	435173 14432 982 196732 1.241823651141 36.341818576602 352 0.099998996016 0.100012102649 35.199994026222 3.5199988090245
100	449605 9873 904 196654 1.240526350934 36.340534360825 352 4 4 1408 5632
99	459478 9536 982 196732 1.241823651141 36.341818576602 352 4 4 1408 5632
98	469014 499 5238 194860 2 36 35 0 0 0 0
97	469513 710 5238 194860 2 36 35 0.023625 0.02625 0.916125 0.023986265625
96	470223 499 5238 194860 2 36 35 4 4 140 560
117	470722 11754 237 197100 1.11 36.41 354 -1.4980277570429 1.4988827604699 49.688435445749 511.76886123159
116	482476 11800 237 197100 1.11 36.41 354 -1.453940271638 1.4285447656441 46.939746445895 358.67321415683
115	494276 7854 237 197100 1.11 36.41 354 36.55 36.55 12938.7 472909.485
114	502130 11352 237 197100 1.11 36.41 354 79.052977752686 1076.1556502615 202883.80121428 145199409.21807
113	513482 11357 237 197100 1.11 36.41 354 26.506799901103 32.450650102826 10000.443649344 283126.61965515
111	524839 12378 237 197100 1.11 36.41 354 -0.15467957675663 0.035220619226141 -3.0286413184862 0.42412825886579
110	537217 11337 237 197100 1.11 36.41 354 10.750857825255 11.029041094019 3890.4134212593 42755.662906191
112	548554 6438 237 197100 1.11 36.41 354 5 5 1770 8850
124	554992 14431 1242 196992 1.287403101453 36.387398009735 352 0.099998994933 0.100012102523 35.200007009043 3.5200014057335
123	569423 14430 988 196738 1.241823701176 36.34181862583 352 0.099998995968 0.100012102655 35.199994025415 3.5199988088631
122	583853 9886 1242 196992 1.287403101453 36.387398009735 352 5 5 1760 8800
121	593739 9883 988 196738 1.241823701176 36.34181862583 352 5 5 1760 8800
120	603622 534 5239 194861 2 36 35 0 0 0 0
119	604156 745 5239 194861 2 36 35 0.023625 0.02625 0.916125 0.023986265625
118	604901 534 5239 194861 2 36 35 5 5 175 875
139	605435 11749 238 197101 1.11 36.41 354 -1.488961769576 1.4892820935974 50.514707406746 503.33878195763
138	617184 11799 238 197101 1.11 36.41 354 -1.4484613577004 1.423468459711 47.822056327884 356.92013495211
137	628983 7854 238 197101 1.11 36.41 354 36.55 36.55 12938.7 472909.485
136	636837 11364 238 197101 1.11 36.41 354 64.052977752686 1061.2653011246 197574.89408405 139195536.00512
135	648201 11354 238 197101 1.11 36.41 354 26.513052660566 32.535461732981 10001.570424341 283195.94157284
133	659555 12413 238 197101 1.11 36.41 354 -0.089416936541106 0.019374224362203 -1.5961724611003 0.12394005640791
132	671968 11331 238 197101 1.11 36.41 354 10.892045369429 11.01506935304 3892.929665727 42810.539045611
134	683299 6438 238 197101 1.11 36.41 354 6 6 2124 12744
146	689737 14429 1106 196856 1.266712751211 36.366707675457 352 0.099998995939 0.100012102657 35.199994025007 3.5199988087814
145	704166 14433 994 196744 1.241823751211 36.341818675518 352 0.099998995941 0.100012102658 35.199994025068 3.5199988087937
144	718599 9883 1106 196856 1.266712751211 36.366707675457 352 6 6 2112 12672
143	728482 9888 994 196744 1.241823751211 36.341818675518 352 6 6 2112 12672
142	738370 534 5240 194862 2 36 35 0 0 0 0
141	738904 745 5240 194862 2 36 35 0.023625 0.02625 0.916125 0.023986265625
140	739649 534 5240 194862 2 36 35 6 6 210 1260
161	740183 11756 239 197102 1.11 36.41 354 -1.496353420782 1.4966188714923 51.552428780521 513.94743651281
160	751939 11797 239 197102 1.11 36.41 354 -1.451779337739 1.4279262018306 48.38196297745 360.74943867925
159	763736 7854 239 197102 1.11 36.41 354 36.55 36.55 12938.7 472909.485
158	771590 11358 239 197102 1.11 36.41 354 49.052977752686 1046.3934208252 192266.93765352 133352318.16084
157	782948 11357 239 197102 1.11 36.41 354 26.506298829227 32.591540115799 10002.871252986 283278.66793329
155	794305 12362 239 197102 1.11 36.41 354 -0.061168232412115 0.034536355439467 -1.7790492088387 0.20134182582639
154	806667 11345 239 197102 1.11 36.41 354 10.873001867069 11.022935930205 3891.9824471101 42789.831095547
156	818012 6438 239 197102 1.11 36.41 354 7 7 2478 17346
168	824450 14435 1308 197052 1.289467201522 36.389462109025 352 0.099998994887 0.100012102829 35.199994008264 3.5199988054335
167	838885 14417 1000 196750 1.241823801245 36.341818725139 352 0.099998995924 0.10001210266 35.199994024655 3.5199988087111
166	853302 9897 1308 197052 1.289467201522 36.389462109025 352 7 7 2464 17248
165	863199 9875 1000 196750 1.241823801245 36.341818725139 352 7 7 2464 17248
164	873074 534 5241 194863 2 36 35 0 0 0 0
163	873608 745 5241 194863 2 36 35 0.023625 0.02625 0.916125 0.023986265625
162	874353 534 5241 194863 2 36 35 7 7 245 1715
22	874887 11016 233 197103 1.11 36.41 355 0 11.093469552986 3727.8768831186 40393.028233442
23	885903 11981 233 197103 1.11 36.41 355 -4.3378570852877 0.078120772564866 -114.36083756466 400.14717609955
24	897884 6102 233 197103 1.11 36.41 355 1 1 355 355
25	903986 11025 233 197103 1.11 36.41 355 26.487285803139 30.886513116455 10005.647679186 282480.46860642
26	915011 11041 233 197103 1.11 36.41 355 139.05297775269 1133.6462963358 225228.47769728 172037983.19068
27	926052 7522 233 197103 1.11 36.41 355 36.55 36.55 12975.25 474245.3875
28	933574 11511 233 197103 1.11 36.41 355 -1.4807765622834 1.4557932513856 30.679612253304 351.11138586364
29	945085 11451 233 197103 1.11 36.41 355 -1.5034793944864 1.5024511423159 30.003196494125 499.99488159134
30	956536 499 5235 194857 2 36 35 1 1 35 35
31	957035 710 5235 194857 2 36 35 0.023625 0.02625 0.916125 0.023986265625
32	957745 499 5235 194857 2 36 35 0 0 0 0
33	958244 9534 964 196714 1.241823501038 36.341818433693 352 1 1 352 352
34	967778 9534 964 196714 1.241823501038 36.341818433693 352 1 1 352 352
35	977312 14081 964 196714 1.241823501038 36.341818433693 352 0.099998996479 0.100012102664 35.199994033416 3.5199988104633
36	991393 14081 964 196714 1.241823501038 36.341818433693 352 0.099998996479 0.100012102664 35.199994033416 3.5199988104633
