file 960130 1501597911                                          
version 2
run SinusoidalJammingDetail-167-20170801-16:31:32-96649
attr CACCSpacing 5
attr attackAcc -30
attr attackPos 7
attr attackSpeed 150
attr attackStart 31.5
attr attacker 1
attr beaconInterval 0.1
attr configname SinusoidalJammingDetail
attr controller 1
attr datetime 20170801-16:31:32
attr experiment SinusoidalJammingDetail
attr fakeAcc "(1 == 4)"
attr fakePos "(1 == 2)"
attr fakeSpeed "(1 == 3)"
attr inifile omnetpp_167.ini
attr iterationvars "$leaderSpeed=80, $controller=1, $CACCSpacing=5, $sController=\"CACC\", $attacker=1, $attackStart=31.5, $attackSpeed=150, $attackPos=7, $attackAcc=-30, $0=5, $1=0, $nCars=8, $platoonSize=8, $nLanes=1, $beaconInterval=0.1, $priority=2, $packetSize=200, $ploegH=0.5, $leaderHeadway=1.2, $fakeSpeed=(1 == 3), $fakeAcc=(1 == 4), $fakePos=(1 == 2)"
attr iterationvarsf leaderSpeed=80,controller=1,CACCSpacing=5,sController=CACC,attacker=1,attackStart=31.5,attackSpeed=150,attackPos=7,attackAcc=-30,5,0,nCars=8,platoonSize=8,nLanes=1,beaconInterval=0.1,priority=2,packetSize=200,ploegH=0.5,leaderHeadway=1.2,fakeSpeed=(1_==_3),fakeAcc=(1_==_4),fakePos=(1_==_2)-
attr leaderHeadway 1.2
attr leaderSpeed 80
attr measurement "$leaderSpeed=80, $controller=1, $CACCSpacing=5, $sController=\"CACC\", $attacker=1, $attackStart=31.5, $attackSpeed=150, $attackPos=7, $attackAcc=-30, $0=5, $1=0, $nCars=8, $platoonSize=8, $nLanes=1, $beaconInterval=0.1, $priority=2, $packetSize=200, $ploegH=0.5, $leaderHeadway=1.2, $fakeSpeed=(1 == 3), $fakeAcc=(1 == 4), $fakePos=(1 == 2)"
attr nCars 8
attr nLanes 1
attr network scenario
attr packetSize 200
attr platoonSize 8
attr ploegH 0.5
attr priority 2
attr processid 96649
attr repetition 2
attr replication #2
attr resultdir results
attr runnumber 167
attr sController "\"CACC\""
attr seedset 2
param **.coreDebug false
param **.debug false
param **.headway 0.1s
param **.numberOfCars 8
param **.numberOfCarsPerPlatoon 8
param **.numberOfLanes 1
param **.numericController 1
param **.traffic.nCars 8
param **.traffic.nLanes 1
param **.traffic.platoonInsertDistance 5m
param **.traffic.platoonInsertHeadway 0s
param **.traffic.platoonInsertSpeed 80kmph
param **.traffic.platoonInsertTime "1 s"
param **.traffic.platoonLeaderHeadway 1.2s
param **.traffic.platoonSize 8
param **.traffic.platooningVType "\"vtypeauto\""
param **.traffic_type "\"PlatoonsTrafficManager\""
param *.**.nic.mac1609_4.bitrate 6Mbps
param *.**.nic.mac1609_4.txPower 100mW
param *.**.nic.mac1609_4.useServiceChannel false
param *.**.nic.phy80211p.analogueModels "xmldoc(\"config.xml\")"
param *.**.nic.phy80211p.decider "xmldoc(\"config.xml\")"
param *.**.nic.phy80211p.maxTXPower 100mW
param *.**.nic.phy80211p.sensitivity -94dBm
param *.**.nic.phy80211p.thermalNoise -95dBm
param *.**.nic.phy80211p.usePropagationDelay true
param *.**.nic.phy80211p.useThermalNoise true
param *.annotations.draw false
param *.connectionManager.alpha 2.0
param *.connectionManager.carrierFrequency "5.890e9 Hz"
param *.connectionManager.pMax 100mW
param *.connectionManager.sat -94dBm
param *.connectionManager.sendDirect true
param *.manager.autoShutdown true
param *.manager.commandLine "\"sumo --remote-port $port --seed $seed --configuration-file $configFile\""
param *.manager.configFile "\"./sumocfg/freeway.sumo.cfg\""
param *.manager.host "\"localhost\""
param *.manager.margin 25
param *.manager.moduleDisplayString "\"\""
param *.manager.moduleName "\"node\""
param *.manager.moduleType "\"Car\""
param *.manager.updateInterval 0.01s
param *.node[*].appl.attackStart 31.5s
param *.node[*].appl.attackerType 1
param *.node[*].appl.simulationDuration "60 s"
param *.node[*].appl_type "\"SimplePlatooningApp\""
param *.node[*].helper.nCars 8
param *.node[*].helper.nLanes 1
param *.node[*].helper.platoonSize 8
param *.node[*].helper_type "\"PositionHelper\""
param *.node[*].mobility.x 0
param *.node[*].mobility.y 0
param *.node[*].mobility.z 1.895
param *.node[*].prot.attackStart 31.5s
param *.node[*].prot.attackerType 1
param *.node[*].prot.attackingNode 3
param *.node[*].prot.beaconingInterval 0.1s
param *.node[*].prot.fakeAcc "(1 == 4)"
param *.node[*].prot.fakePos "(1 == 2)"
param *.node[*].prot.fakeSpeed "(1 == 3)"
param *.node[*].prot.maliciousAcc "-30 mpss"
param *.node[*].prot.maliciousSpeed 150kmph
param *.node[*].prot.packetSize 200
param *.node[*].prot.priority 2
param *.node[*].prot.shiftX "7 m"
param *.node[*].prot.useControllerAcceleration true
param *.node[*].protocol_type "\"SimplePlatooningBeaconing\""
param *.node[*].scenario.accHeadway 0.1s
param *.node[*].scenario.caccC1 0.5
param *.node[*].scenario.caccOmegaN "0.2 Hz"
param *.node[*].scenario.caccSpacing 5m
param *.node[*].scenario.caccXi 1
param *.node[*].scenario.controller "\"CACC\""
param *.node[*].scenario.engineTau "0.5 s"
param *.node[*].scenario.leaderHeadway 1.2s
param *.node[*].scenario.leaderOscillationFrequency "0.2 Hz"
param *.node[*].scenario.leaderSpeed 80kmph
param *.node[*].scenario.oscillationAmplitude "10 kmph"
param *.node[*].scenario.ploegH 0.5s
param *.node[*].scenario.ploegKd 0.7
param *.node[*].scenario.ploegKp 0.2
param *.node[*].scenario.startOscillating "5 s"
param *.node[*].scenario.useRealisticEngine false
param *.node[*].scenario_type "\"SinusoidalScenario\""
param *.node[*].unicast.packetLossRate 0
param *.obstacles.debug false
param *.playgroundSizeX 65000m
param *.playgroundSizeY 25000m
param *.playgroundSizeZ 50m
param *.world.use2D false
param *.world.useTorus false

vector 0  scenario.node[0].appl  distance  ETV
vector 1  scenario.node[0].appl  relativeSpeed  ETV
vector 2  scenario.node[0].appl  nodeId  ETV
vector 6  scenario.node[0].appl  acceleration  ETV
vector 7  scenario.node[0].appl  controllerAcceleration  ETV
vector 3  scenario.node[0].appl  speed  ETV
vector 4  scenario.node[0].appl  posx  ETV
vector 5  scenario.node[0].appl  posy  ETV
vector 22  scenario.node[1].appl  distance  ETV
vector 23  scenario.node[1].appl  relativeSpeed  ETV
vector 24  scenario.node[1].appl  nodeId  ETV
vector 28  scenario.node[1].appl  acceleration  ETV
vector 29  scenario.node[1].appl  controllerAcceleration  ETV
vector 25  scenario.node[1].appl  speed  ETV
vector 26  scenario.node[1].appl  posx  ETV
vector 27  scenario.node[1].appl  posy  ETV
vector 44  scenario.node[2].appl  distance  ETV
vector 45  scenario.node[2].appl  relativeSpeed  ETV
vector 46  scenario.node[2].appl  nodeId  ETV
vector 50  scenario.node[2].appl  acceleration  ETV
vector 51  scenario.node[2].appl  controllerAcceleration  ETV
vector 47  scenario.node[2].appl  speed  ETV
vector 48  scenario.node[2].appl  posx  ETV
vector 49  scenario.node[2].appl  posy  ETV
vector 66  scenario.node[3].appl  distance  ETV
vector 67  scenario.node[3].appl  relativeSpeed  ETV
vector 68  scenario.node[3].appl  nodeId  ETV
vector 72  scenario.node[3].appl  acceleration  ETV
vector 73  scenario.node[3].appl  controllerAcceleration  ETV
vector 69  scenario.node[3].appl  speed  ETV
vector 70  scenario.node[3].appl  posx  ETV
vector 71  scenario.node[3].appl  posy  ETV
vector 88  scenario.node[4].appl  distance  ETV
vector 89  scenario.node[4].appl  relativeSpeed  ETV
vector 90  scenario.node[4].appl  nodeId  ETV
vector 94  scenario.node[4].appl  acceleration  ETV
vector 95  scenario.node[4].appl  controllerAcceleration  ETV
vector 91  scenario.node[4].appl  speed  ETV
vector 92  scenario.node[4].appl  posx  ETV
vector 93  scenario.node[4].appl  posy  ETV
vector 110  scenario.node[5].appl  distance  ETV
vector 111  scenario.node[5].appl  relativeSpeed  ETV
vector 112  scenario.node[5].appl  nodeId  ETV
vector 116  scenario.node[5].appl  acceleration  ETV
vector 117  scenario.node[5].appl  controllerAcceleration  ETV
vector 113  scenario.node[5].appl  speed  ETV
vector 114  scenario.node[5].appl  posx  ETV
vector 115  scenario.node[5].appl  posy  ETV
vector 132  scenario.node[6].appl  distance  ETV
vector 133  scenario.node[6].appl  relativeSpeed  ETV
vector 134  scenario.node[6].appl  nodeId  ETV
vector 138  scenario.node[6].appl  acceleration  ETV
vector 139  scenario.node[6].appl  controllerAcceleration  ETV
vector 135  scenario.node[6].appl  speed  ETV
vector 136  scenario.node[6].appl  posx  ETV
vector 137  scenario.node[6].appl  posy  ETV
vector 154  scenario.node[7].appl  distance  ETV
vector 155  scenario.node[7].appl  relativeSpeed  ETV
vector 156  scenario.node[7].appl  nodeId  ETV
vector 160  scenario.node[7].appl  acceleration  ETV
vector 161  scenario.node[7].appl  controllerAcceleration  ETV
vector 157  scenario.node[7].appl  speed  ETV
vector 158  scenario.node[7].appl  posx  ETV
vector 159  scenario.node[7].appl  posy  ETV
vector 168  scenario.node[7].prot  frontDelay  ETV
vector 166  scenario.node[7].prot  frontDelayId  ETV
vector 146  scenario.node[6].prot  frontDelay  ETV
vector 144  scenario.node[6].prot  frontDelayId  ETV
vector 35  scenario.node[1].prot  leaderDelay  ETV
vector 33  scenario.node[1].prot  leaderDelayId  ETV
vector 36  scenario.node[1].prot  frontDelay  ETV
vector 34  scenario.node[1].prot  frontDelayId  ETV
vector 57  scenario.node[2].prot  leaderDelay  ETV
vector 55  scenario.node[2].prot  leaderDelayId  ETV
vector 79  scenario.node[3].prot  leaderDelay  ETV
vector 77  scenario.node[3].prot  leaderDelayId  ETV
vector 101  scenario.node[4].prot  leaderDelay  ETV
vector 99  scenario.node[4].prot  leaderDelayId  ETV
vector 123  scenario.node[5].prot  leaderDelay  ETV
vector 121  scenario.node[5].prot  leaderDelayId  ETV
vector 145  scenario.node[6].prot  leaderDelay  ETV
vector 143  scenario.node[6].prot  leaderDelayId  ETV
vector 167  scenario.node[7].prot  leaderDelay  ETV
vector 165  scenario.node[7].prot  leaderDelayId  ETV
vector 102  scenario.node[4].prot  frontDelay  ETV
vector 100  scenario.node[4].prot  frontDelayId  ETV
vector 80  scenario.node[3].prot  frontDelay  ETV
vector 78  scenario.node[3].prot  frontDelayId  ETV
vector 124  scenario.node[5].prot  frontDelay  ETV
vector 122  scenario.node[5].prot  frontDelayId  ETV
vector 58  scenario.node[2].prot  frontDelay  ETV
vector 56  scenario.node[2].prot  frontDelayId  ETV
vector 8  scenario.node[0].prot  nodeId  ETV
vector 9  scenario.node[0].prot  busyTime  ETV
vector 10  scenario.node[0].prot  collisions  ETV
vector 30  scenario.node[1].prot  nodeId  ETV
vector 31  scenario.node[1].prot  busyTime  ETV
vector 32  scenario.node[1].prot  collisions  ETV
vector 52  scenario.node[2].prot  nodeId  ETV
vector 53  scenario.node[2].prot  busyTime  ETV
vector 54  scenario.node[2].prot  collisions  ETV
vector 74  scenario.node[3].prot  nodeId  ETV
vector 75  scenario.node[3].prot  busyTime  ETV
vector 76  scenario.node[3].prot  collisions  ETV
vector 96  scenario.node[4].prot  nodeId  ETV
vector 97  scenario.node[4].prot  busyTime  ETV
vector 98  scenario.node[4].prot  collisions  ETV
vector 118  scenario.node[5].prot  nodeId  ETV
vector 119  scenario.node[5].prot  busyTime  ETV
vector 120  scenario.node[5].prot  collisions  ETV
vector 140  scenario.node[6].prot  nodeId  ETV
vector 141  scenario.node[6].prot  busyTime  ETV
vector 142  scenario.node[6].prot  collisions  ETV
vector 162  scenario.node[7].prot  nodeId  ETV
vector 163  scenario.node[7].prot  busyTime  ETV
vector 164  scenario.node[7].prot  collisions  ETV
7	11238 8054 232 188167 1.11 34.81 338 -1.5 1.5 -15.315238746315 536.99541499734
6	19292 10591 232 188167 1.11 34.81 338 -1.4722746795719 1.451340770512 -11.875193284304 365.91846396328
5	29883 6810 232 188167 1.11 34.81 338 36.55 36.55 12353.9 451535.045
4	36693 10146 232 188167 1.11 34.81 338 100.1155250552 853.44049237059 161488.40711691 93211044.413917
3	46839 10159 232 188167 1.11 34.81 338 20.932481705563 24.18693697487 7555.0623523826 169119.32580521
1	56998 5458 232 188167 1.11 34.81 338 0 0 0 0
0	62456 5796 232 188167 1.11 34.81 338 -1 -1 -338 338
2	68252 5458 232 188167 1.11 34.81 338 0 0 0 0
10	73710 468 5168 183634 2 34 33 0 0 0 0
9	74178 634 5168 183634 2 34 33 0.023297 0.02625 0.863297 0.022592750209
8	74812 435 5168 183634 2 34 33 0 0 0 0
51	75247 10822 234 188169 1.11 34.81 338 -1.4963007070559 1.4967154504992 35.936458741325 496.39210536047
50	86069 10872 234 188169 1.11 34.81 338 -1.4778825462848 1.4525906615429 33.757120939839 356.92666698215
49	96941 7148 234 188169 1.11 34.81 338 36.55 36.55 12353.9 451535.045
48	104089 10498 234 188169 1.11 34.81 338 82.115521240234 840.45871676223 155438.8265539 87568239.14932
47	114587 10486 234 188169 1.11 34.81 338 20.931173436863 25.576175490462 7606.8321539397 171558.79752518
45	125073 11511 234 188169 1.11 34.81 338 -0.37332086306314 0.017598496804197 -3.9558887483177 0.99540777854431
44	136584 10503 234 188169 1.11 34.81 338 4.6549324422515 5.0458894350832 1688.897091227 8439.5863382698
46	147087 5796 234 188169 1.11 34.81 338 2 2 676 1352
58	152883 13431 1312 188135 1.302609200833 34.802602282604 336 0.099998622233 0.10001166295 33.600004742229 3.3600009537448
57	166314 13467 1040 188419 1.262216960667 34.862221666239 337 0.099998622788 0.10001166314 33.70000336603 3.3700006785062
56	179781 9097 1312 188135 1.302609200833 34.802602282604 336 2 2 672 1344
55	188878 9123 1040 188419 1.262216960667 34.862221666239 337 2 2 674 1348
54	198001 468 5170 183636 2 34 33 0 0 0 0
53	198469 667 5170 183636 2 34 33 0.023297 0.02625 0.863297 0.022592750209
52	199136 468 5170 183636 2 34 33 2 2 66 132
73	199604 10845 235 188170 1.11 34.81 338 -1.514450412847 1.5154441898024 39.501288248191 511.94436577141
72	210449 10896 235 188170 1.11 34.81 338 -1.4663368957564 1.4406082173746 35.797358917082 354.89027057079
71	221345 7148 235 188170 1.11 34.81 338 36.55 36.55 12353.9 451535.045
70	228493 10494 235 188170 1.11 34.81 338 73.115521240234 831.61862161555 152396.49003794 84798691.669807
69	238987 10491 235 188170 1.11 34.81 338 20.942784672117 25.772472857238 7608.5009277131 171639.92092781
67	249478 11578 235 188170 1.11 34.81 338 -0.20140964495061 0.014948764379479 -2.0063449827804 0.27171174225304
66	261056 10468 235 188170 1.11 34.81 338 4.8440210940165 5.0406529052262 1690.3698914298 8453.8600294366
68	271524 5796 235 188170 1.11 34.81 338 3 3 1014 3042
80	277320 13464 1176 188555 1.287873050729 34.88787775458 337 0.099998618766 0.10001166287 33.700003364309 3.3700006781627
79	290784 13473 1046 188425 1.262216990687 34.862221695693 337 0.099998622726 0.100011663143 33.700003365464 3.370000678393
78	304257 9118 1176 188555 1.287873050729 34.88787775458 337 3 3 1011 3033
77	313375 9116 1046 188425 1.262216990687 34.862221695693 337 3 3 1011 3033
76	322491 468 5171 183637 2 34 33 0 0 0 0
75	322959 667 5171 183637 2 34 33 0.023297 0.02625 0.863297 0.022592750209
74	323626 468 5171 183637 2 34 33 3 3 99 297
95	324094 10842 236 188171 1.11 34.81 338 -1.5000260501642 1.5032357345846 40.862898559248 504.39266682364
94	334936 10879 236 188171 1.11 34.81 338 -1.4562064152923 1.4309616942626 36.839781971171 352.0546200069
93	345815 7148 236 188171 1.11 34.81 338 36.55 36.55 12353.9 451535.045
92	352963 10504 236 188171 1.11 34.81 338 64.115521240234 822.69284408086 149353.6265178 82082954.520443
91	363467 10483 236 188171 1.11 34.81 338 20.953113143725 25.872397798773 7609.2788374184 171676.37852521
89	373950 11591 236 188171 1.11 34.81 338 -0.10640276093194 0.014322367954914 -1.1358832945322 0.087248170012188
88	385541 10474 236 188171 1.11 34.81 338 4.9277760335212 5.02684614303 1690.8790783335 8458.8392915279
90	396015 5796 236 188171 1.11 34.81 338 4 4 1352 5408
102	401811 13783 1108 188487 1.276579020708 34.876583725445 337 0.099998618865 0.100011662875 33.700003365195 3.3700006783399
101	415594 13790 1052 188431 1.262217020708 34.862221725449 337 0.099998622695 0.100011663146 33.700003365199 3.37000067834
100	429384 9442 1108 188487 1.276579020708 34.876583725445 337 4 4 1348 5392
99	438826 9115 1052 188431 1.262217020708 34.862221725449 337 4 4 1348 5392
98	447941 468 5172 183638 2 34 33 0 0 0 0
97	448409 667 5172 183638 2 34 33 0.023297 0.02625 0.863297 0.022592750209
96	449076 468 5172 183638 2 34 33 4 4 132 528
117	449544 11197 237 188172 1.11 34.81 338 -1.5085423840525 1.5107019375876 42.050889676257 513.99923386956
116	460741 11228 237 188172 1.11 34.81 338 -1.4566506602975 1.4330842501291 37.502345869133 355.2973178772
115	471969 7486 237 188172 1.11 34.81 338 36.55 36.55 12353.9 451535.045
114	479455 10835 237 188172 1.11 34.81 338 55.115523147583 813.78334157564 146311.30799121 79422317.901001
113	490290 10827 237 188172 1.11 34.81 338 20.948160930863 25.938432781992 7610.2071697628 171723.69437271
111	501117 11794 237 188172 1.11 34.81 338 -0.07332339201702 0.032962835561111 -1.2967301641121 0.18336257174244
110	512911 10822 237 188172 1.11 34.81 338 4.910823204887 5.0245320086455 1690.3370932428 8453.4598986054
112	523733 6134 237 188172 1.11 34.81 338 5 5 1690 8450
124	529867 13753 1244 188060 1.297503110771 34.79750919532 336 0.099998622547 0.100011662942 33.600004745007 3.3600009543002
123	543620 13798 1058 188437 1.262217050729 34.862221755156 337 0.099998622674 0.100011663147 33.700003364885 3.3700006782772
122	557418 9432 1244 188060 1.297503110771 34.79750919532 336 5 5 1680 8400
121	566850 9443 1058 188437 1.262217050729 34.862221755156 337 5 5 1685 8425
120	576293 501 5173 183639 2 34 33 0 0 0 0
119	576794 700 5173 183639 2 34 33 0.023297 0.02625 0.863297 0.022592750209
118	577494 501 5173 183639 2 34 33 5 5 165 825
139	577995 11190 238 188173 1.11 34.81 338 -1.4954220880948 1.4958357896534 41.79557048902 504.02703587078
138	589185 11247 238 188173 1.11 34.81 338 -1.4604220929424 1.4357065165477 37.817315772648 357.28373907608
137	600432 7486 238 188173 1.11 34.81 338 36.55 36.55 12353.9 451535.045
136	607918 10826 238 188173 1.11 34.81 338 46.115523147583 804.76414661077 143267.41636072 76814151.649705
135	618744 10833 238 188173 1.11 34.81 338 20.946897506166 25.966502764852 7610.0256908171 171716.95073654
133	629577 12046 238 188173 1.11 34.81 338 -0.035765542277776 0.011156245202823 -0.19354451290585 0.021499337699612
132	641623 10808 238 188173 1.11 34.81 338 4.9803726634635 5.0343591454945 1691.8880009088 8468.964278849
134	652431 6134 238 188173 1.11 34.81 338 6 6 2028 12168
146	658565 13802 970 188349 1.247594780542 34.847599521989 337 0.099998622085 0.100011663076 33.700003401905 3.3700006856816
145	672367 13790 1064 188443 1.26221708075 34.862221785236 337 0.099998622666 0.100011663144 33.700003364944 3.370000678289
144	686157 9446 970 188349 1.247594780542 34.847599521989 337 6 6 2022 12132
143	695603 9453 1064 188443 1.26221708075 34.862221785236 337 6 6 2022 12132
142	705056 501 5174 183640 2 34 33 0 0 0 0
141	705557 700 5174 183640 2 34 33 0.023297 0.02625 0.863297 0.022592750209
140	706257 501 5174 183640 2 34 33 6 6 198 1188
161	706758 11186 239 188174 1.11 34.81 338 -1.4854568309636 1.4867112460475 41.521391654316 491.57464446781
160	717944 11237 239 188174 1.11 34.81 338 -1.455342185233 1.4301187298617 37.87807470817 354.97040792277
159	729181 7486 239 188174 1.11 34.81 338 36.55 36.55 12353.9 451535.045
158	736667 10826 239 188174 1.11 34.81 338 37.115522193909 795.74912348838 140223.95832002 74261410.837876
157	747493 10820 239 188174 1.11 34.81 338 20.953062703943 25.97400246621 7609.8781689839 171708.31803845
155	758313 12081 239 188174 1.11 34.81 338 -0.01550111167769 0.0095544699647689 -0.23065132453369 0.014455471393356
154	770394 10825 239 188174 1.11 34.81 338 4.9953146786096 5.0169958481284 1691.455090262 8464.5675834035
156	781219 6134 239 188174 1.11 34.81 338 7 7 2366 16562
168	787353 13804 832 188205 1.212136690479 34.812128431753 337 0.099998622106 0.100011663088 33.699990401732 3.3699980855133
167	801157 13804 1070 188449 1.26221711077 34.862221815306 337 0.099998622664 0.100011663145 33.700003364994 3.370000678299
166	814961 9457 832 188205 1.212136690479 34.812128431753 337 7 7 2359 16513
165	824418 9454 1070 188449 1.26221711077 34.862221815306 337 7 7 2359 16513
164	833872 501 5175 183641 2 34 33 0 0 0 0
163	834373 700 5175 183641 2 34 33 0.023297 0.02625 0.863297 0.022592750209
162	835073 501 5175 183641 2 34 33 7 7 231 1617
22	835574 10514 233 188587 1.11 34.89 339 0 5.1291572580468 1657.7188678203 8229.87923119
23	846088 11449 233 188587 1.11 34.89 339 -4.2195146228024 0.09659505122109 -52.214445676356 158.54791143852
24	857537 5814 233 188587 1.11 34.89 339 1 1 339 339
25	863351 10515 233 188587 1.11 34.89 339 20.924939896252 25.228203301913 7628.4042386709 172013.91484286
26	873866 10526 233 188587 1.11 34.89 339 91.115521240234 851.1239510011 159330.77447375 91114510.460844
27	884392 7170 233 188587 1.11 34.89 339 36.55 36.55 12390.45 452870.9475
28	891562 10927 233 188587 1.11 34.89 339 -1.4872877332895 1.463189247885 30.242965402071 354.25417187004
29	902489 10898 233 188587 1.11 34.89 339 -1.5233934319007 1.5241491831618 31.702202497586 509.81760433209
30	913387 468 5169 183635 2 34 33 1 1 33 33
31	913855 667 5169 183635 2 34 33 0.023296 0.02625 0.863296 0.022592703616
32	914522 468 5169 183635 2 34 33 0 0 0 0
33	914990 9110 1034 188413 1.262216930646 34.862221637458 337 1 1 337 337
34	924100 9110 1034 188413 1.262216930646 34.862221637458 337 1 1 337 337
35	933210 13460 1034 188413 1.262216930646 34.862221637458 337 0.099998622905 0.10001166314 33.70000336727 3.3700006787542
36	946670 13460 1034 188413 1.262216930646 34.862221637458 337 0.099998622905 0.10001166314 33.70000336727 3.3700006787542
