version 2
run SinusoidalJammingDetail-287-20170801-17:01:51-97389
attr CACCSpacing 13
attr attackAcc -30
attr attackPos 7
attr attackSpeed 150
attr attackStart 31.5
attr attacker 1
attr beaconInterval 0.1
attr configname SinusoidalJammingDetail
attr controller 1
attr datetime 20170801-17:01:51
attr experiment SinusoidalJammingDetail
attr fakeAcc "(1 == 4)"
attr fakePos "(1 == 2)"
attr fakeSpeed "(1 == 3)"
attr inifile omnetpp_287.ini
attr iterationvars "$leaderSpeed=80, $controller=1, $CACCSpacing=13, $sController=\"CACC\", $attacker=1, $attackStart=31.5, $attackSpeed=150, $attackPos=7, $attackAcc=-30, $0=13, $1=0, $nCars=8, $platoonSize=8, $nLanes=1, $beaconInterval=0.1, $priority=2, $packetSize=200, $ploegH=0.5, $leaderHeadway=1.2, $fakeSpeed=(1 == 3), $fakeAcc=(1 == 4), $fakePos=(1 == 2)"
attr iterationvarsf leaderSpeed=80,controller=1,CACCSpacing=13,sController=CACC,attacker=1,attackStart=31.5,attackSpeed=150,attackPos=7,attackAcc=-30,13,0,nCars=8,platoonSize=8,nLanes=1,beaconInterval=0.1,priority=2,packetSize=200,ploegH=0.5,leaderHeadway=1.2,fakeSpeed=(1_==_3),fakeAcc=(1_==_4),fakePos=(1_==_2)-
attr leaderHeadway 1.2
attr leaderSpeed 80
attr measurement "$leaderSpeed=80, $controller=1, $CACCSpacing=13, $sController=\"CACC\", $attacker=1, $attackStart=31.5, $attackSpeed=150, $attackPos=7, $attackAcc=-30, $0=13, $1=0, $nCars=8, $platoonSize=8, $nLanes=1, $beaconInterval=0.1, $priority=2, $packetSize=200, $ploegH=0.5, $leaderHeadway=1.2, $fakeSpeed=(1 == 3), $fakeAcc=(1 == 4), $fakePos=(1 == 2)"
attr nCars 8
attr nLanes 1
attr network scenario
attr packetSize 200
attr platoonSize 8
attr ploegH 0.5
attr priority 2
attr processid 97389
attr repetition 2
attr replication #2
attr resultdir results
attr runnumber 287
attr sController "\"CACC\""
attr seedset 2
param **.coreDebug false
param **.debug false
param **.headway 0.1s
param **.numberOfCars 8
param **.numberOfCarsPerPlatoon 8
param **.numberOfLanes 1
param **.numericController 1
param **.traffic.nCars 8
param **.traffic.nLanes 1
param **.traffic.platoonInsertDistance 13m
param **.traffic.platoonInsertHeadway 0s
param **.traffic.platoonInsertSpeed 80kmph
param **.traffic.platoonInsertTime "1 s"
param **.traffic.platoonLeaderHeadway 1.2s
param **.traffic.platoonSize 8
param **.traffic.platooningVType "\"vtypeauto\""
param **.traffic_type "\"PlatoonsTrafficManager\""
param *.**.nic.mac1609_4.bitrate 6Mbps
param *.**.nic.mac1609_4.txPower 100mW
param *.**.nic.mac1609_4.useServiceChannel false
param *.**.nic.phy80211p.analogueModels "xmldoc(\"config.xml\")"
param *.**.nic.phy80211p.decider "xmldoc(\"config.xml\")"
param *.**.nic.phy80211p.maxTXPower 100mW
param *.**.nic.phy80211p.sensitivity -94dBm
param *.**.nic.phy80211p.thermalNoise -95dBm
param *.**.nic.phy80211p.usePropagationDelay true
param *.**.nic.phy80211p.useThermalNoise true
param *.annotations.draw false
param *.connectionManager.alpha 2.0
param *.connectionManager.carrierFrequency "5.890e9 Hz"
param *.connectionManager.pMax 100mW
param *.connectionManager.sat -94dBm
param *.connectionManager.sendDirect true
param *.manager.autoShutdown true
param *.manager.commandLine "\"sumo --remote-port $port --seed $seed --configuration-file $configFile\""
param *.manager.configFile "\"./sumocfg/freeway.sumo.cfg\""
param *.manager.host "\"localhost\""
param *.manager.margin 25
param *.manager.moduleDisplayString "\"\""
param *.manager.moduleName "\"node\""
param *.manager.moduleType "\"Car\""
param *.manager.updateInterval 0.01s
param *.node[*].appl.attackStart 31.5s
param *.node[*].appl.attackerType 1
param *.node[*].appl.simulationDuration "60 s"
param *.node[*].appl_type "\"SimplePlatooningApp\""
param *.node[*].helper.nCars 8
param *.node[*].helper.nLanes 1
param *.node[*].helper.platoonSize 8
param *.node[*].helper_type "\"PositionHelper\""
param *.node[*].mobility.x 0
param *.node[*].mobility.y 0
param *.node[*].mobility.z 1.895
param *.node[*].prot.attackStart 31.5s
param *.node[*].prot.attackerType 1
param *.node[*].prot.attackingNode 3
param *.node[*].prot.beaconingInterval 0.1s
param *.node[*].prot.fakeAcc "(1 == 4)"
param *.node[*].prot.fakePos "(1 == 2)"
param *.node[*].prot.fakeSpeed "(1 == 3)"
param *.node[*].prot.maliciousAcc "-30 mpss"
param *.node[*].prot.maliciousSpeed 150kmph
param *.node[*].prot.packetSize 200
param *.node[*].prot.priority 2
param *.node[*].prot.shiftX "7 m"
param *.node[*].prot.useControllerAcceleration true
param *.node[*].protocol_type "\"SimplePlatooningBeaconing\""
param *.node[*].scenario.accHeadway 0.1s
param *.node[*].scenario.caccC1 0.5
param *.node[*].scenario.caccOmegaN "0.2 Hz"
param *.node[*].scenario.caccSpacing 13m
param *.node[*].scenario.caccXi 1
param *.node[*].scenario.controller "\"CACC\""
param *.node[*].scenario.engineTau "0.5 s"
param *.node[*].scenario.leaderHeadway 1.2s
param *.node[*].scenario.leaderOscillationFrequency "0.2 Hz"
param *.node[*].scenario.leaderSpeed 80kmph
param *.node[*].scenario.oscillationAmplitude "10 kmph"
param *.node[*].scenario.ploegH 0.5s
param *.node[*].scenario.ploegKd 0.7
param *.node[*].scenario.ploegKp 0.2
param *.node[*].scenario.startOscillating "5 s"
param *.node[*].scenario.useRealisticEngine false
param *.node[*].scenario_type "\"SinusoidalScenario\""
param *.node[*].unicast.packetLossRate 0
param *.obstacles.debug false
param *.playgroundSizeX 65000m
param *.playgroundSizeY 25000m
param *.playgroundSizeZ 50m
param *.world.use2D false
param *.world.useTorus false

vector 0  scenario.node[0].appl  distance  ETV
vector 1  scenario.node[0].appl  relativeSpeed  ETV
vector 2  scenario.node[0].appl  nodeId  ETV
vector 6  scenario.node[0].appl  acceleration  ETV
vector 7  scenario.node[0].appl  controllerAcceleration  ETV
vector 3  scenario.node[0].appl  speed  ETV
vector 4  scenario.node[0].appl  posx  ETV
vector 5  scenario.node[0].appl  posy  ETV
vector 22  scenario.node[1].appl  distance  ETV
vector 23  scenario.node[1].appl  relativeSpeed  ETV
vector 24  scenario.node[1].appl  nodeId  ETV
vector 28  scenario.node[1].appl  acceleration  ETV
vector 29  scenario.node[1].appl  controllerAcceleration  ETV
vector 25  scenario.node[1].appl  speed  ETV
vector 26  scenario.node[1].appl  posx  ETV
vector 27  scenario.node[1].appl  posy  ETV
vector 44  scenario.node[2].appl  distance  ETV
vector 45  scenario.node[2].appl  relativeSpeed  ETV
vector 46  scenario.node[2].appl  nodeId  ETV
vector 50  scenario.node[2].appl  acceleration  ETV
vector 51  scenario.node[2].appl  controllerAcceleration  ETV
vector 47  scenario.node[2].appl  speed  ETV
vector 48  scenario.node[2].appl  posx  ETV
vector 49  scenario.node[2].appl  posy  ETV
vector 66  scenario.node[3].appl  distance  ETV
vector 67  scenario.node[3].appl  relativeSpeed  ETV
vector 68  scenario.node[3].appl  nodeId  ETV
vector 72  scenario.node[3].appl  acceleration  ETV
vector 73  scenario.node[3].appl  controllerAcceleration  ETV
vector 69  scenario.node[3].appl  speed  ETV
vector 70  scenario.node[3].appl  posx  ETV
vector 71  scenario.node[3].appl  posy  ETV
vector 88  scenario.node[4].appl  distance  ETV
vector 89  scenario.node[4].appl  relativeSpeed  ETV
vector 90  scenario.node[4].appl  nodeId  ETV
vector 94  scenario.node[4].appl  acceleration  ETV
vector 95  scenario.node[4].appl  controllerAcceleration  ETV
vector 91  scenario.node[4].appl  speed  ETV
vector 92  scenario.node[4].appl  posx  ETV
vector 93  scenario.node[4].appl  posy  ETV
vector 110  scenario.node[5].appl  distance  ETV
vector 111  scenario.node[5].appl  relativeSpeed  ETV
vector 112  scenario.node[5].appl  nodeId  ETV
vector 116  scenario.node[5].appl  acceleration  ETV
vector 117  scenario.node[5].appl  controllerAcceleration  ETV
vector 113  scenario.node[5].appl  speed  ETV
vector 114  scenario.node[5].appl  posx  ETV
vector 115  scenario.node[5].appl  posy  ETV
vector 132  scenario.node[6].appl  distance  ETV
vector 133  scenario.node[6].appl  relativeSpeed  ETV
vector 134  scenario.node[6].appl  nodeId  ETV
vector 138  scenario.node[6].appl  acceleration  ETV
vector 139  scenario.node[6].appl  controllerAcceleration  ETV
vector 135  scenario.node[6].appl  speed  ETV
vector 136  scenario.node[6].appl  posx  ETV
vector 137  scenario.node[6].appl  posy  ETV
vector 154  scenario.node[7].appl  distance  ETV
vector 155  scenario.node[7].appl  relativeSpeed  ETV
vector 156  scenario.node[7].appl  nodeId  ETV
vector 160  scenario.node[7].appl  acceleration  ETV
vector 161  scenario.node[7].appl  controllerAcceleration  ETV
vector 157  scenario.node[7].appl  speed  ETV
vector 158  scenario.node[7].appl  posx  ETV
vector 159  scenario.node[7].appl  posy  ETV
vector 168  scenario.node[7].prot  frontDelay  ETV
vector 166  scenario.node[7].prot  frontDelayId  ETV
vector 146  scenario.node[6].prot  frontDelay  ETV
vector 144  scenario.node[6].prot  frontDelayId  ETV
vector 35  scenario.node[1].prot  leaderDelay  ETV
vector 33  scenario.node[1].prot  leaderDelayId  ETV
vector 36  scenario.node[1].prot  frontDelay  ETV
vector 34  scenario.node[1].prot  frontDelayId  ETV
vector 57  scenario.node[2].prot  leaderDelay  ETV
vector 55  scenario.node[2].prot  leaderDelayId  ETV
vector 79  scenario.node[3].prot  leaderDelay  ETV
vector 77  scenario.node[3].prot  leaderDelayId  ETV
vector 101  scenario.node[4].prot  leaderDelay  ETV
vector 99  scenario.node[4].prot  leaderDelayId  ETV
vector 123  scenario.node[5].prot  leaderDelay  ETV
vector 121  scenario.node[5].prot  leaderDelayId  ETV
vector 145  scenario.node[6].prot  leaderDelay  ETV
vector 143  scenario.node[6].prot  leaderDelayId  ETV
vector 167  scenario.node[7].prot  leaderDelay  ETV
vector 165  scenario.node[7].prot  leaderDelayId  ETV
vector 102  scenario.node[4].prot  frontDelay  ETV
vector 100  scenario.node[4].prot  frontDelayId  ETV
vector 80  scenario.node[3].prot  frontDelay  ETV
vector 78  scenario.node[3].prot  frontDelayId  ETV
vector 124  scenario.node[5].prot  frontDelay  ETV
vector 122  scenario.node[5].prot  frontDelayId  ETV
vector 58  scenario.node[2].prot  frontDelay  ETV
vector 56  scenario.node[2].prot  frontDelayId  ETV
vector 8  scenario.node[0].prot  nodeId  ETV
vector 9  scenario.node[0].prot  busyTime  ETV
vector 10  scenario.node[0].prot  collisions  ETV
vector 30  scenario.node[1].prot  nodeId  ETV
vector 31  scenario.node[1].prot  busyTime  ETV
vector 32  scenario.node[1].prot  collisions  ETV
vector 52  scenario.node[2].prot  nodeId  ETV
vector 53  scenario.node[2].prot  busyTime  ETV
vector 54  scenario.node[2].prot  collisions  ETV
vector 74  scenario.node[3].prot  nodeId  ETV
vector 75  scenario.node[3].prot  busyTime  ETV
vector 76  scenario.node[3].prot  collisions  ETV
vector 96  scenario.node[4].prot  nodeId  ETV
vector 97  scenario.node[4].prot  busyTime  ETV
vector 98  scenario.node[4].prot  collisions  ETV
vector 118  scenario.node[5].prot  nodeId  ETV
vector 119  scenario.node[5].prot  busyTime  ETV
vector 120  scenario.node[5].prot  collisions  ETV
vector 140  scenario.node[6].prot  nodeId  ETV
vector 141  scenario.node[6].prot  busyTime  ETV
vector 142  scenario.node[6].prot  collisions  ETV
vector 162  scenario.node[7].prot  nodeId  ETV
vector 163  scenario.node[7].prot  busyTime  ETV
vector 164  scenario.node[7].prot  collisions  ETV
7	232	1.11	8.430731206488e-07
7	788	1.21	8.247038785214e-07
7	1344	1.31	7.948429328053e-07
7	1900	1.41	7.5609037608615e-07
7	2456	1.51	7.1073863239235e-07
7	3012	1.61	6.6078666094427e-07
7	3568	1.71	6.079568990458e-07
7	4124	1.81	5.5371389606762e-07
7	4680	1.91	4.9928438983216e-07
7	5244	2.01	4.4567811841034e-07
7	5800	2.11	3.9370868165634e-07
7	6356	2.21	3.4401411852514e-07
7	6912	2.31	2.9707706872273e-07
7	7468	2.41	2.5324398578164e-07
7	8024	2.51	2.1274344064182e-07
7	8580	2.61	1.7570315336002e-07
7	9136	2.71	1.4216582755466e-07
7	9692	2.81	1.1210364547765e-07
7	10248	2.91	8.5431519636359e-08
7	10812	3.01	6.2018816748832e-08
7	11368	3.11	4.1699859565369e-08
7	11924	3.21	2.4283316690799e-08
7	12480	3.31	9.5601571103998e-09
7	13036	3.41	-2.6894362292751e-09
7	13592	3.51	-1.2690140493987e-08
7	14148	3.61	-2.0666576006079e-08
7	14704	3.71	-2.6839355626862e-08
7	15260	3.81	-3.1421798496467e-08
7	15816	3.91	-3.4617407607129e-08
7	16380	4.01	-3.6617997523081e-08
7	16936	4.11	-3.7602347902066e-08
7	17492	4.21	-3.7735404134764e-08
7	18048	4.31	-3.7167730226884e-08
7	18604	4.41	-3.6035434192172e-08
7	19160	4.51	-3.446024621212e-08
7	19716	4.61	-3.2549973383311e-08
7	20272	4.71	-3.0399071704323e-08
7	20828	4.81	-2.8089345960325e-08
7	21384	4.91	-2.5690727767369e-08
7	21949	5.01	-2.326218861981e-08
7	22506	5.11	0.34814785015927
7	23063	5.21	0.68726933461214
7	23620	5.31	1.0064705986278
7	24177	5.41	1.2963311417008
7	24734	5.51	1.5
7	25291	5.61	1.5
7	25848	5.71	1.5
7	26405	5.81	1.5
7	26962	5.91	1.5
7	27527	6.01	1.5
7	28084	6.11	1.5
7	28641	6.21	1.5
7	29198	6.31	1.5
7	29755	6.41	1.5
7	30312	6.51	1.49192340766
7	30869	6.61	1.22649932262
7	31426	6.71	0.92305383478006
7	31983	6.81	0.58908101519542
7	32540	6.91	0.23235621239028
7	33105	7.01	-0.13919560128961
7	33662	7.11	-0.5176284684353
7	34219	7.21	-0.89509994168449
7	34776	7.31	-1.2639902903501
7	35333	7.41	-1.5
7	35890	7.51	-1.5
7	36447	7.61	-1.5
7	37004	7.71	-1.5
7	37561	7.81	-1.5
7	38118	7.91	-1.5
7	38683	8.01	-1.5
7	39240	8.11	-1.5
7	39797	8.21	-1.5
7	40354	8.31	-1.5
7	40911	8.41	-1.5
7	41468	8.51	-1.5
7	42025	8.61	-1.5
7	42582	8.71	-1.5
7	43139	8.81	-1.5
7	43696	8.91	-1.5
7	44261	9.01	-1.5
7	44818	9.11	-1.5
7	45375	9.21	-1.5
7	45932	9.31	-1.5
7	46489	9.41	-1.5
7	47046	9.51	-1.1784535907027
7	47603	9.61	-0.73985166445766
7	48160	9.71	-0.29046662083969
7	48717	9.81	0.158682056465
7	49274	9.91	0.59737147669388
7	49839	10.01	1.0162504339893
7	50396	10.11	1.4069035497099
7	50953	10.21	1.5
7	51510	10.31	1.5
7	52067	10.41	1.5
7	52624	10.51	1.5
7	53181	10.61	1.5
7	53738	10.71	1.5
7	54295	10.81	1.5
7	54852	10.91	1.5
7	55417	11.01	1.5
7	55974	11.11	1.5
7	56531	11.21	1.5
7	57088	11.31	1.5
7	57645	11.41	1.5
7	58202	11.51	1.5
7	58759	11.61	1.5
7	59316	11.71	1.5
7	59873	11.81	1.5
7	60430	11.91	1.1420569522637
7	60995	12.01	0.73271074167055
7	61552	12.11	0.3076349169641
7	62109	12.21	-0.12290183406852
7	62666	12.31	-0.54917422870931
7	63223	12.41	-0.96209331721755
7	63780	12.51	-1.3532900275778
7	64337	12.61	-1.5
7	64894	12.71	-1.5
7	65451	12.81	-1.5
7	66008	12.91	-1.5
7	66573	13.01	-1.5
7	67130	13.11	-1.5
7	67687	13.21	-1.5
7	68244	13.31	-1.5
7	68801	13.41	-1.5
7	69358	13.51	-1.5
7	69915	13.61	-1.5
7	70472	13.71	-1.5
7	71029	13.81	-1.5
7	71586	13.91	-1.5
7	72151	14.01	-1.5
7	72708	14.11	-1.5
7	73265	14.21	-1.5
7	73822	14.31	-1.5
7	74379	14.41	-1.3008305793368
7	74936	14.51	-0.88835736023102
7	75493	14.61	-0.45792464376746
7	76050	14.71	-0.020297800498863
7	76607	14.81	0.41435934755698
7	77164	14.91	0.83657487483132
7	77729	15.01	1.2376491838803
7	78286	15.11	1.5
7	78843	15.21	1.5
7	79400	15.31	1.5
7	79957	15.41	1.5
7	80514	15.51	1.5
7	81071	15.61	1.5
7	81628	15.71	1.5
7	82185	15.81	1.5
7	82742	15.91	1.5
7	83307	16.01	1.5
7	83864	16.11	1.5
7	84421	16.21	1.5
7	84978	16.31	1.5
7	85535	16.41	1.5
7	86092	16.51	1.5
7	86649	16.61	1.5
7	87206	16.71	1.5
7	87763	16.81	1.5
7	88320	16.91	1.2451238477314
7	88885	17.01	0.83347870134691
7	89442	17.11	0.40470958876234
7	89999	17.21	-0.03059806222544
7	90556	17.31	-0.46243980387284
7	91113	17.41	-0.88148335305215
7	91670	17.51	-1.2791500631777
7	92227	17.61	-1.5
7	92784	17.71	-1.5
7	93341	17.81	-1.5
7	93898	17.91	-1.5
7	94463	18.01	-1.5
7	95020	18.11	-1.5
7	95577	18.21	-1.5
7	96134	18.31	-1.5
7	96691	18.41	-1.5
7	97248	18.51	-1.5
7	97805	18.61	-1.5
7	98362	18.71	-1.5
7	98919	18.81	-1.5
7	99476	18.91	-1.5
7	100041	19.01	-1.5
7	100598	19.11	-1.5
7	101155	19.21	-1.5
7	101712	19.31	-1.5
7	102269	19.41	-1.2657245815164
7	102826	19.51	-0.85377693481871
7	103383	19.61	-0.4243956003844
7	103940	19.71	0.011767371264867
7	104497	19.81	0.44464851836084
7	105054	19.91	0.86486384400239
7	105619	20.01	1.2637899041101
7	106176	20.11	1.5
7	106733	20.21	1.5
7	107290	20.31	1.5
7	107847	20.41	1.5
7	108404	20.51	1.5
7	108961	20.61	1.5
7	109518	20.71	1.5
7	110075	20.81	1.5
7	110632	20.91	1.5
7	111197	21.01	1.5
7	111754	21.11	1.5
7	112311	21.21	1.5
7	112868	21.31	1.5
7	113425	21.41	1.5
7	113982	21.51	1.5
7	114539	21.61	1.5
7	115096	21.71	1.5
7	115653	21.81	1.5
7	116210	21.91	1.2580915517753
7	116775	22.01	0.84625491634726
7	117332	22.11	0.41709956367407
7	117889	22.21	-0.018747163543662
7	118446	22.31	-0.45124369149508
7	119003	22.41	-0.87102520538678
7	119560	22.51	-1.2694848794604
7	120117	22.61	-1.5
7	120674	22.71	-1.5
7	121231	22.81	-1.5
7	121788	22.91	-1.5
7	122353	23.01	-1.5
7	122910	23.11	-1.5
7	123467	23.21	-1.5
7	124024	23.31	-1.5
7	124581	23.41	-1.5
7	125138	23.51	-1.5
7	125695	23.61	-1.5
7	126252	23.71	-1.5
7	126809	23.81	-1.5
7	127366	23.91	-1.5
7	127931	24.01	-1.5
7	128488	24.11	-1.5
7	129045	24.21	-1.5
7	129602	24.31	-1.5
7	130159	24.41	-1.2609239651119
7	130716	24.51	-0.84904615684549
7	131273	24.61	-0.41980696481121
7	131830	24.71	0.016157099446048
7	132387	24.81	0.44879633966007
7	132944	24.91	0.86873882266865
7	133509	25.01	1.2673715557193
7	134066	25.11	1.5
7	134623	25.21	1.5
7	135180	25.31	1.5
7	135737	25.41	1.5
7	136294	25.51	1.5
7	136851	25.61	1.5
7	137408	25.71	1.5
7	137965	25.81	1.5
7	138522	25.91	1.5
7	139087	26.01	1.5
7	139644	26.11	1.5
7	140201	26.21	1.5
7	140758	26.31	1.5
7	141315	26.41	1.5
7	141872	26.51	1.5
7	142429	26.61	1.5
7	142986	26.71	1.5
7	143543	26.81	1.5
7	144100	26.91	1.2598728518627
7	144665	27.01	0.84801032251372
7	145222	27.11	0.41880224309083
7	145779	27.21	-0.017118277442513
7	146336	27.31	-0.44970455708465
7	146893	27.41	-0.86958730431945
7	147450	27.51	-1.2681558149833
7	148007	27.61	-1.5
7	148564	27.71	-1.5
7	149121	27.81	-1.5
7	149678	27.91	-1.5
7	150243	28.01	-1.5
7	150800	28.11	-1.5
7	151357	28.21	-1.5
7	151914	28.31	-1.5
7	152471	28.41	-1.5
7	153028	28.51	-1.5
7	153585	28.61	-1.5
7	154142	28.71	-1.5
7	154699	28.81	-1.5
7	155256	28.91	-1.5
7	155821	29.01	-1.5
7	156378	29.11	-1.5
7	156935	29.21	-1.5
7	157492	29.31	-1.5
7	158049	29.41	-1.2602629232518
7	158606	29.51	-0.84839472385647
7	159163	29.61	-0.41917509845289
7	159720	29.71	0.016761581286932
7	160277	29.81	0.44936751475819
7	160834	29.91	0.86927243012153
7	161399	30.01	1.2678647739108
7	161956	30.11	1.5
7	162513	30.21	1.5
7	163070	30.31	1.5
7	163627	30.41	1.5
7	164184	30.51	1.5
7	164741	30.61	1.5
7	165298	30.71	1.5
7	165855	30.81	1.5
7	166412	30.91	1.5
7	166977	31.01	1.5
7	167534	31.11	1.5
7	168091	31.21	1.5
7	168648	31.31	1.5
7	169205	31.41	1.5
7	169762	31.51	1.5
7	170319	31.61	1.5
7	170876	31.71	1.5
7	171433	31.81	1.5
7	171990	31.91	1.2601181665206
7	172555	32.01	0.84825207129739
7	173112	32.11	0.41903673064385
7	173669	32.21	-0.016893952363201
7	174226	32.31	-0.44949259223613
7	174783	32.41	-0.8693892809366
7	175340	32.51	-1.2679727801774
7	175897	32.61	-1.5
7	176454	32.71	-1.5
7	177011	32.81	-1.5
7	177568	32.91	-1.5
7	178133	33.01	-1.5
7	178690	33.11	-1.5
7	179247	33.21	-1.5
7	179804	33.31	-1.5
7	180361	33.41	-1.5
7	180918	33.51	-1.5
7	181475	33.61	-1.5
7	182032	33.71	-1.5
7	182589	33.81	-1.5
7	183146	33.91	-1.5
7	183711	34.01	-1.5
7	184268	34.11	-1.5
7	184825	34.21	-1.5
7	185382	34.31	-1.5
7	185939	34.41	-1.2601718862039
7	186496	34.51	-0.84830501011572
7	187053	34.61	-0.41908807937784
7	187610	34.71	0.016844829035751
7	188167	34.81	0.44944617558619
7	188724	34.91	0.86934591722748
7	189289	35.01	1.2679326987084
7	189846	35.11	1.5
7	190403	35.21	1.5
7	190960	35.31	1.5
7	191517	35.41	1.5
7	192074	35.51	1.5
7	192631	35.61	1.5
7	193188	35.71	1.5
7	193745	35.81	1.5
7	194302	35.91	1.5
7	194867	36.01	1.5
7	195424	36.11	1.5
7	195981	36.21	1.5
7	196538	36.31	1.5
7	197095	36.41	1.5
7	197652	36.51	1.5
7	198209	36.61	1.5
7	198766	36.71	1.5
7	199323	36.81	1.5
7	199880	36.91	1.2601519506571
7	200445	37.01	0.84828536435041
7	201002	37.11	0.41906902369789
6	232	1.11	1.2391545567425e-07
6	788	1.21	2.514333630188e-07
6	1344	1.31	3.5153284727585e-07
6	1900	1.41	4.2734420446777e-07
6	2456	1.51	4.8187125401e-07
6	3012	1.61	5.1795971955926e-07
6	3568	1.71	5.3827413637464e-07
6	4124	1.81	5.4528506154838e-07
6	4680	1.91	5.4125663950799e-07
6	5244	2.01	5.2824375984528e-07
6	5800	2.11	5.080941889446e-07
6	6356	2.21	4.8245141215375e-07
6	6912	2.31	4.5276244975412e-07
6	7468	2.41	4.202860282021e-07
6	8024	2.51	3.8610643571246e-07
6	8580	2.61	3.5114133822844e-07
6	9136	2.71	3.1616025353287e-07
6	9692	2.81	2.8179307776099e-07
6	10248	2.91	2.4854536206931e-07
6	10812	3.01	2.1681287876163e-07
6	11368	3.11	1.8689298997288e-07
6	11924	3.21	1.5899530581009e-07
6	12480	3.31	1.3325838210676e-07
6	13036	3.41	1.0975469422192e-07
6	13592	3.51	8.8505203166278e-08
6	14148	3.61	6.948575048682e-08
6	14704	3.71	5.263665059374e-08
6	15260	3.81	3.7870506730542e-08
6	15816	3.91	2.5077895315917e-08
6	16380	4.01	1.4133405557004e-08
6	16936	4.11	4.9016790626411e-09
6	17492	4.21	-2.7593927143243e-09
6	18048	4.31	-8.9940499492513e-09
6	18604	4.41	-1.3947598631603e-08
6	19160	4.51	-1.7761081494427e-08
6	19716	4.61	-2.0570567471623e-08
6	20272	4.71	-2.2507151697937e-08
6	20828	4.81	-2.3691626438449e-08
6	21384	4.91	-2.4239099616352e-08
6	21949	5.01	-2.4253310471067e-08
6	22506	5.11	0.0068264050138822
6	23063	5.21	0.074594790622484
6	23620	5.31	0.19005130280156
6	24177	5.41	0.34050268492081
6	24734	5.51	0.51301635125718
6	25291	5.61	0.69025455388463
6	25848	5.71	0.83572669994751
6	26405	5.81	0.95506452764909
6	26962	5.91	1.0529631117155
6	27527	6.01	1.1332740487145
6	28084	6.11	1.1991569893425
6	28641	6.21	1.2532039476781
6	29198	6.31	1.2975412780619
6	29755	6.41	1.3339133316631
6	30312	6.51	1.3635927194422
6	30869	6.61	1.3702053558546
6	31426	6.71	1.3272611868377
6	31983	6.81	1.2373810863703
6	32540	6.91	1.10404336986
6	33105	7.01	0.93147091462953
6	33662	7.11	0.72451590042988
6	34219	7.21	0.48854317855174
6	34776	7.31	0.22931329168649
6	35333	7.41	-0.044839402561792
6	35890	7.51	-0.30626147784645
6	36447	7.61	-0.52071863285548
6	37004	7.71	-0.69664819536399
6	37561	7.81	-0.84097171286572
6	38118	7.91	-0.95936726507979
6	38683	8.01	-1.0564928550515
6	39240	8.11	-1.1361696676595
6	39797	8.21	-1.2015324054218
6	40354	8.31	-1.2551526162195
6	40911	8.41	-1.299139864987
6	41468	8.51	-1.3352247297291
6	42025	8.61	-1.3648268871716
6	42582	8.71	-1.3891109667025
6	43139	8.81	-1.40903237006
6	43696	8.91	-1.4253748594349
6	44261	9.01	-1.4387813928092
6	44818	9.11	-1.4497794196703
6	45375	9.21	-1.4588016323081
6	45932	9.31	-1.466202989106
6	46489	9.41	-1.4722746795719
6	47046	9.51	-1.4696249147679
6	47603	9.61	-1.3967850640324
6	48160	9.71	-1.2587757642699
6	48717	9.81	-1.066095221946
6	49274	9.91	-0.8292333503487
6	49839	10.01	-0.55852907850635
6	50396	10.11	-0.26404116086489
6	50953	10.21	0.039432698568831
6	51510	10.31	0.30182609741765
6	52067	10.41	0.51708007606237
6	52624	10.51	0.69366331148437
6	53181	10.61	0.83852306844925
6	53738	10.71	0.9573585237959
6	54295	10.81	1.0548449875539
6	54852	10.91	1.1348178423589
6	55417	11.01	1.2004234378345
6	55974	11.11	1.2542428765453
6	56531	11.21	1.2983935615914
6	57088	11.31	1.3346125010074
6	57645	11.41	1.3643246463804
6	58202	11.51	1.3886989543238
6	58759	11.61	1.4086943764056
6	59316	11.71	1.425097586916
6	59873	11.81	1.4385539327701
6	60430	11.91	1.4345627372659
6	60995	12.01	1.3623449188493
6	61552	12.11	1.2299875654136
6	62109	12.21	1.046144839739
6	62666	12.31	0.81967864244703
6	63223	12.41	0.55952045900121
6	63780	12.51	0.27454262944673
6	64337	12.61	-0.022341644921298
6	64894	12.71	-0.28780548061533
6	65451	12.81	-0.50557828690501
6	66008	12.91	-0.68422783830435
6	66573	13.01	-0.83078269406727
6	67130	13.11	-0.95100872083052
6	67687	13.21	-1.0496359374866
6	68244	13.31	-1.1305446069922
6	68801	13.41	-1.1969178964666
6	69358	13.51	-1.2513671116437
6	69915	13.61	-1.2960344327443
6	70472	13.71	-1.3326771936686
6	71029	13.81	-1.3627370202961
6	71586	13.91	-1.387396547964
6	72151	14.01	-1.4076259495617
6	72708	14.11	-1.4242211047701
6	73265	14.21	-1.4378349121323
6	73822	14.31	-1.4490029758559
6	74379	14.41	-1.4542593951862
6	74936	14.51	-1.406745439008
6	75493	14.61	-1.2938574955371
6	76050	14.71	-1.1248409052335
6	76607	14.81	-0.90912582143545
6	77164	14.91	-0.65618298377075
6	77729	15.01	-0.37539052554685
6	78286	15.11	-0.078063005097917
6	78843	15.21	0.20543869667193
6	79400	15.31	0.43800883573084
6	79957	15.41	0.6287973539095
6	80514	15.51	0.78531039043277
6	81071	15.61	0.91370559385275
6	81628	15.71	1.0190343806912
6	82185	15.81	1.1054406719015
6	82742	15.91	1.1763239259945
6	83307	16.01	1.2344728829795
6	83864	16.11	1.2821752809813
6	84421	16.21	1.3213078620826
6	84978	16.31	1.3534102084588
6	85535	16.41	1.37974531373
6	86092	16.51	1.401349272566
6	86649	16.61	1.4190720434684
6	87206	16.71	1.4336108884475
6	87763	16.81	1.445537805208
6	88320	16.91	1.4502949065324
6	88885	17.01	1.3935559567514
6	89442	17.11	1.2733368701429
6	89999	17.21	1.0986742440515
6	90556	17.31	0.87879676591136
6	91113	17.41	0.62298329275663
6	91670	17.51	0.34043137853068
6	92227	17.61	0.043031849076769
6	92784	17.71	-0.23417644595618
6	93341	17.81	-0.46158379949794
6	93898	17.91	-0.64813703535584
6	94463	18.01	-0.80117566522766
6	95020	18.11	-0.92672064505805
6	95577	18.21	-1.0297112558195
6	96134	18.31	-1.114199428261
6	96691	18.41	-1.1835091568834
6	97248	18.51	-1.2403672749233
6	97805	18.61	-1.2870107353912
6	98362	18.71	-1.3252746188865
6	98919	18.81	-1.3566643306593
6	99476	18.91	-1.382414827345
6	100041	19.01	-1.4035392035215
6	100598	19.11	-1.4208685496044
6	101155	19.21	-1.4350846492011
6	101712	19.31	-1.4467468023362
6	102269	19.41	-1.4517201941779
6	102826	19.51	-1.3984004323895
6	103383	19.61	-1.2808993810108
6	103940	19.71	-1.1083308503789
6	104497	19.81	-0.88999806037009
6	105054	19.91	-0.63525086467102
6	105619	20.01	-0.35335363991607
6	106176	20.11	-0.055983891309808
6	106733	20.21	0.22355126013096
6	107290	20.31	0.45286744637067
6	107847	20.41	0.64098658988634
6	108404	20.51	0.79530980944291
6	108961	20.61	0.9219086002382
6	109518	20.71	1.0257637030328
6	110075	20.81	1.1109610600439
6	110632	20.91	1.1808525670215
6	111197	21.01	1.2381879459461
6	111754	21.11	1.2852229265697
6	112311	21.21	1.3238079929597
6	112868	21.31	1.3554611865729
6	113425	21.41	1.3814278301389
6	113982	21.51	1.4027295220426
6	114539	21.61	1.4202043287792
6	115096	21.71	1.4345397567762
6	115653	21.81	1.4462998007623
6	116210	21.91	1.4512038299458
6	116775	22.01	1.3966149622043
6	117332	22.11	1.2781048258539
6	117889	22.21	1.1047586168253
6	118446	22.31	0.88585193073918
6	119003	22.41	0.63070830476057
6	119560	22.51	0.34856734380959
6	120117	22.61	0.051185654370656
6	120674	22.71	-0.22748748564574
6	121231	22.81	-0.45609652228009
6	121788	22.91	-0.64363555681872
6	122353	23.01	-0.79748288496297
6	122910	23.11	-0.92369127904632
6	123467	23.21	-1.0272261205632
6	124024	23.31	-1.1121607517786
6	124581	23.41	-1.1818367320966
6	125138	23.51	-1.2389953040923
6	125695	23.61	-1.2858852414528
6	126252	23.71	-1.3243513218477
6	126809	23.81	-1.3559069055024
6	127366	23.91	-1.3817934749049
6	127931	24.01	-1.4030294781044
6	128488	24.11	-1.4204503972252
6	129045	24.21	-1.434741618608
6	129602	24.31	-1.4464653977726
6	130159	24.41	-1.4513952146881
6	130716	24.51	-1.3972773206763
6	131273	24.61	-1.2791416668563
6	131830	24.71	-1.1060840673021
6	132387	24.81	-0.88739036841652
6	132944	24.91	-0.63239387292597
6	133509	25.01	-0.35034337810913
6	134066	25.11	-0.052966136909305
6	134623	25.21	0.2260268698226
6	135180	25.31	0.45489830857264
6	135737	25.41	0.64265260424108
6	136294	25.51	0.79667652148672
6	136851	25.61	0.92302978013947
6	137408	25.71	1.026683461059
6	137965	25.81	1.1117155819772
6	138522	25.91	1.1814715378073
6	139087	26.01	1.2386957175785
6	139644	26.11	1.2856394761656
6	140201	26.21	1.3241497087126
6	140758	26.31	1.3557415125099
6	141315	26.41	1.381657795045
6	141872	26.51	1.4029181733619
6	142429	26.61	1.4203590885685
6	142986	26.71	1.4346667137069
6	143543	26.81	1.4464039496644
6	144100	26.91	1.4513241957726
6	144665	27.01	1.3970315218256
6	145222	27.11	1.2787568961965
6	145779	27.21	1.1055921925461
6	146336	27.31	0.88681945319387
6	146893	27.41	0.63176835684509
6	147450	27.51	0.34968428947479
6	148007	27.61	0.05230539719534
6	148564	27.71	-0.22656890652399
6	149121	27.81	-0.45534296745871
6	149678	27.91	-0.64301737940262
6	150243	28.01	-0.79697576417068
6	150800	28.11	-0.92327526336611
6	151357	28.21	-1.0268848428069
6	151914	28.31	-1.1118807851517
6	152471	28.41	-1.1816070619506
6	153028	28.51	-1.2388068945789
6	153585	28.61	-1.2857306800289
6	154142	28.71	-1.3242245276459
6	154699	28.81	-1.3558028900945
6	155256	28.91	-1.3817081460427
6	155821	29.01	-1.4029594787171
6	156378	29.11	-1.4203929733469
6	156935	29.21	-1.4346945110272
6	157492	29.31	-1.4464267531491
6	158049	29.41	-1.4513505510322
6	158606	29.51	-1.3971227384761
6	159163	29.61	-1.2788996857307
6	159720	29.71	-1.1057747287555
6	160277	29.81	-0.88703132157555
6	160834	29.91	-0.63200048778391
6	161399	30.01	-0.34992887929981
6	161956	30.11	-0.052550599748002
6	162513	30.21	0.22636775502605
6	163070	30.31	0.45517795316989
6	163627	30.41	0.64288201021121
6	164184	30.51	0.79686471428424
6	164741	30.61	0.92318416378099
6	165298	30.71	1.0268101094166
6	165855	30.81	1.1118194777413
6	166412	30.91	1.1815567685208
6	166977	31.01	1.2387656364488
6	167534	31.11	1.2856968339918
6	168091	31.21	1.324196762107
6	168648	31.31	1.3557801126822
6	169205	31.41	1.3816894606308
6	169762	31.51	1.4029441501705
6	170319	31.61	1.4203803985996
6	170876	31.71	1.4346841953547
6	171433	31.81	1.4464182907037
6	171990	31.91	1.451340770512
6	172555	32.01	1.397088887688
6	173112	32.11	1.2788466960817
6	173669	32.21	1.105706988989
6	174226	32.31	0.88695269654693
6	174783	32.41	0.6319143432556
6	175340	32.51	0.34983811123936
6	175897	32.61	0.052459604302157
6	176454	32.71	-0.22644240298604
6	177011	32.81	-0.45523919049693
6	177568	32.91	-0.64293224614822
6	178133	33.01	-0.7969059252499
6	178690	33.11	-0.92321797112582
6	179247	33.21	-1.0268378432144
6	179804	33.31	-1.1118422291158
6	180361	33.41	-1.181575432572
6	180918	33.51	-1.2387809474717
6	181475	33.61	-1.2857093943634
6	182032	33.71	-1.3242070659867
6	182589	33.81	-1.3557885654517
6	183146	33.91	-1.3816963948457
6	183711	34.01	-1.4029498386424
6	184268	34.11	-1.4203850651278
6	184825	34.21	-1.434688023533
6	185382	34.31	-1.4464214311442
6	185939	34.41	-1.4513444000944
6	186496	34.51	-1.3971014498232
6	187053	34.61	-1.2788663607083
6	187610	34.71	-1.1057321274315
6	188167	34.81	-0.88698187454526
6	188724	34.91	-0.63194631176486
6	189289	35.01	-0.34987179555586
6	189846	35.11	-0.052493373001994
6	190403	35.21	0.22641470089013
6	190960	35.31	0.45521646512974
6	191517	35.41	0.64291360343276
6	192074	35.51	0.79689063173021
6	192631	35.61	0.9232054251143
6	193188	35.71	1.0268275511155
6	193745	35.81	1.1118337860104
6	194302	35.91	1.1815685062846
6	194867	36.01	1.2387752655037
6	195424	36.11	1.2857047331707
6	195981	36.21	1.324203242185
6	196538	36.31	1.3557854286034
6	197095	36.41	1.3816938215378
6	197652	36.51	1.4029477276342
6	198209	36.61	1.4203833333653
6	198766	36.71	1.4346866028841
6	199323	36.81	1.4464202657173
6	199880	36.91	1.4513430531448
6	200445	37.01	1.3970967879747
6	201002	37.11	1.2788590631025
5	232	1.11	36.55
5	788	1.21	36.55
5	1344	1.31	36.55
5	1900	1.41	36.55
5	2456	1.51	36.55
5	3012	1.61	36.55
5	3568	1.71	36.55
5	4124	1.81	36.55
5	4680	1.91	36.55
5	5244	2.01	36.55
5	5800	2.11	36.55
5	6356	2.21	36.55
5	6912	2.31	36.55
5	7468	2.41	36.55
5	8024	2.51	36.55
5	8580	2.61	36.55
5	9136	2.71	36.55
5	9692	2.81	36.55
5	10248	2.91	36.55
5	10812	3.01	36.55
5	11368	3.11	36.55
5	11924	3.21	36.55
5	12480	3.31	36.55
5	13036	3.41	36.55
5	13592	3.51	36.55
5	14148	3.61	36.55
5	14704	3.71	36.55
5	15260	3.81	36.55
5	15816	3.91	36.55
5	16380	4.01	36.55
5	16936	4.11	36.55
5	17492	4.21	36.55
5	18048	4.31	36.55
5	18604	4.41	36.55
5	19160	4.51	36.55
5	19716	4.61	36.55
5	20272	4.71	36.55
5	20828	4.81	36.55
5	21384	4.91	36.55
5	21949	5.01	36.55
5	22506	5.11	36.55
5	23063	5.21	36.55
5	23620	5.31	36.55
5	24177	5.41	36.55
5	24734	5.51	36.55
5	25291	5.61	36.55
5	25848	5.71	36.55
5	26405	5.81	36.55
5	26962	5.91	36.55
5	27527	6.01	36.55
5	28084	6.11	36.55
5	28641	6.21	36.55
5	29198	6.31	36.55
5	29755	6.41	36.55
5	30312	6.51	36.55
5	30869	6.61	36.55
5	31426	6.71	36.55
5	31983	6.81	36.55
5	32540	6.91	36.55
5	33105	7.01	36.55
5	33662	7.11	36.55
5	34219	7.21	36.55
5	34776	7.31	36.55
5	35333	7.41	36.55
5	35890	7.51	36.55
5	36447	7.61	36.55
5	37004	7.71	36.55
5	37561	7.81	36.55
5	38118	7.91	36.55
5	38683	8.01	36.55
5	39240	8.11	36.55
5	39797	8.21	36.55
5	40354	8.31	36.55
5	40911	8.41	36.55
5	41468	8.51	36.55
5	42025	8.61	36.55
5	42582	8.71	36.55
5	43139	8.81	36.55
5	43696	8.91	36.55
5	44261	9.01	36.55
5	44818	9.11	36.55
5	45375	9.21	36.55
5	45932	9.31	36.55
5	46489	9.41	36.55
5	47046	9.51	36.55
5	47603	9.61	36.55
5	48160	9.71	36.55
5	48717	9.81	36.55
5	49274	9.91	36.55
5	49839	10.01	36.55
5	50396	10.11	36.55
5	50953	10.21	36.55
5	51510	10.31	36.55
5	52067	10.41	36.55
5	52624	10.51	36.55
5	53181	10.61	36.55
5	53738	10.71	36.55
5	54295	10.81	36.55
5	54852	10.91	36.55
5	55417	11.01	36.55
5	55974	11.11	36.55
5	56531	11.21	36.55
5	57088	11.31	36.55
5	57645	11.41	36.55
5	58202	11.51	36.55
5	58759	11.61	36.55
5	59316	11.71	36.55
5	59873	11.81	36.55
5	60430	11.91	36.55
5	60995	12.01	36.55
5	61552	12.11	36.55
5	62109	12.21	36.55
5	62666	12.31	36.55
5	63223	12.41	36.55
5	63780	12.51	36.55
5	64337	12.61	36.55
5	64894	12.71	36.55
5	65451	12.81	36.55
5	66008	12.91	36.55
5	66573	13.01	36.55
5	67130	13.11	36.55
5	67687	13.21	36.55
5	68244	13.31	36.55
5	68801	13.41	36.55
5	69358	13.51	36.55
5	69915	13.61	36.55
5	70472	13.71	36.55
5	71029	13.81	36.55
5	71586	13.91	36.55
5	72151	14.01	36.55
5	72708	14.11	36.55
5	73265	14.21	36.55
5	73822	14.31	36.55
5	74379	14.41	36.55
5	74936	14.51	36.55
5	75493	14.61	36.55
5	76050	14.71	36.55
5	76607	14.81	36.55
5	77164	14.91	36.55
5	77729	15.01	36.55
5	78286	15.11	36.55
5	78843	15.21	36.55
5	79400	15.31	36.55
5	79957	15.41	36.55
5	80514	15.51	36.55
5	81071	15.61	36.55
5	81628	15.71	36.55
5	82185	15.81	36.55
5	82742	15.91	36.55
5	83307	16.01	36.55
5	83864	16.11	36.55
5	84421	16.21	36.55
5	84978	16.31	36.55
5	85535	16.41	36.55
5	86092	16.51	36.55
5	86649	16.61	36.55
5	87206	16.71	36.55
5	87763	16.81	36.55
5	88320	16.91	36.55
5	88885	17.01	36.55
5	89442	17.11	36.55
5	89999	17.21	36.55
5	90556	17.31	36.55
5	91113	17.41	36.55
5	91670	17.51	36.55
5	92227	17.61	36.55
5	92784	17.71	36.55
5	93341	17.81	36.55
5	93898	17.91	36.55
5	94463	18.01	36.55
5	95020	18.11	36.55
5	95577	18.21	36.55
5	96134	18.31	36.55
5	96691	18.41	36.55
5	97248	18.51	36.55
5	97805	18.61	36.55
5	98362	18.71	36.55
5	98919	18.81	36.55
5	99476	18.91	36.55
5	100041	19.01	36.55
5	100598	19.11	36.55
5	101155	19.21	36.55
5	101712	19.31	36.55
5	102269	19.41	36.55
5	102826	19.51	36.55
5	103383	19.61	36.55
5	103940	19.71	36.55
5	104497	19.81	36.55
5	105054	19.91	36.55
5	105619	20.01	36.55
5	106176	20.11	36.55
5	106733	20.21	36.55
5	107290	20.31	36.55
5	107847	20.41	36.55
5	108404	20.51	36.55
5	108961	20.61	36.55
5	109518	20.71	36.55
5	110075	20.81	36.55
5	110632	20.91	36.55
5	111197	21.01	36.55
5	111754	21.11	36.55
5	112311	21.21	36.55
5	112868	21.31	36.55
5	113425	21.41	36.55
5	113982	21.51	36.55
5	114539	21.61	36.55
5	115096	21.71	36.55
5	115653	21.81	36.55
5	116210	21.91	36.55
5	116775	22.01	36.55
5	117332	22.11	36.55
5	117889	22.21	36.55
5	118446	22.31	36.55
5	119003	22.41	36.55
5	119560	22.51	36.55
5	120117	22.61	36.55
5	120674	22.71	36.55
5	121231	22.81	36.55
5	121788	22.91	36.55
5	122353	23.01	36.55
5	122910	23.11	36.55
5	123467	23.21	36.55
5	124024	23.31	36.55
5	124581	23.41	36.55
5	125138	23.51	36.55
5	125695	23.61	36.55
5	126252	23.71	36.55
5	126809	23.81	36.55
5	127366	23.91	36.55
5	127931	24.01	36.55
5	128488	24.11	36.55
5	129045	24.21	36.55
5	129602	24.31	36.55
5	130159	24.41	36.55
5	130716	24.51	36.55
5	131273	24.61	36.55
5	131830	24.71	36.55
5	132387	24.81	36.55
5	132944	24.91	36.55
5	133509	25.01	36.55
5	134066	25.11	36.55
5	134623	25.21	36.55
5	135180	25.31	36.55
5	135737	25.41	36.55
5	136294	25.51	36.55
5	136851	25.61	36.55
5	137408	25.71	36.55
5	137965	25.81	36.55
5	138522	25.91	36.55
5	139087	26.01	36.55
5	139644	26.11	36.55
5	140201	26.21	36.55
5	140758	26.31	36.55
5	141315	26.41	36.55
5	141872	26.51	36.55
5	142429	26.61	36.55
5	142986	26.71	36.55
5	143543	26.81	36.55
5	144100	26.91	36.55
5	144665	27.01	36.55
5	145222	27.11	36.55
5	145779	27.21	36.55
5	146336	27.31	36.55
5	146893	27.41	36.55
5	147450	27.51	36.55
5	148007	27.61	36.55
5	148564	27.71	36.55
5	149121	27.81	36.55
5	149678	27.91	36.55
5	150243	28.01	36.55
5	150800	28.11	36.55
5	151357	28.21	36.55
5	151914	28.31	36.55
5	152471	28.41	36.55
5	153028	28.51	36.55
5	153585	28.61	36.55
5	154142	28.71	36.55
5	154699	28.81	36.55
5	155256	28.91	36.55
5	155821	29.01	36.55
5	156378	29.11	36.55
5	156935	29.21	36.55
5	157492	29.31	36.55
5	158049	29.41	36.55
5	158606	29.51	36.55
5	159163	29.61	36.55
5	159720	29.71	36.55
5	160277	29.81	36.55
5	160834	29.91	36.55
5	161399	30.01	36.55
5	161956	30.11	36.55
5	162513	30.21	36.55
5	163070	30.31	36.55
5	163627	30.41	36.55
5	164184	30.51	36.55
5	164741	30.61	36.55
5	165298	30.71	36.55
5	165855	30.81	36.55
5	166412	30.91	36.55
5	166977	31.01	36.55
5	167534	31.11	36.55
5	168091	31.21	36.55
5	168648	31.31	36.55
5	169205	31.41	36.55
5	169762	31.51	36.55
5	170319	31.61	36.55
5	170876	31.71	36.55
5	171433	31.81	36.55
5	171990	31.91	36.55
5	172555	32.01	36.55
5	173112	32.11	36.55
5	173669	32.21	36.55
5	174226	32.31	36.55
5	174783	32.41	36.55
5	175340	32.51	36.55
5	175897	32.61	36.55
5	176454	32.71	36.55
5	177011	32.81	36.55
5	177568	32.91	36.55
5	178133	33.01	36.55
5	178690	33.11	36.55
5	179247	33.21	36.55
5	179804	33.31	36.55
5	180361	33.41	36.55
5	180918	33.51	36.55
5	181475	33.61	36.55
5	182032	33.71	36.55
5	182589	33.81	36.55
5	183146	33.91	36.55
5	183711	34.01	36.55
5	184268	34.11	36.55
5	184825	34.21	36.55
5	185382	34.31	36.55
5	185939	34.41	36.55
5	186496	34.51	36.55
5	187053	34.61	36.55
5	187610	34.71	36.55
5	188167	34.81	36.55
5	188724	34.91	36.55
5	189289	35.01	36.55
5	189846	35.11	36.55
5	190403	35.21	36.55
5	190960	35.31	36.55
5	191517	35.41	36.55
5	192074	35.51	36.55
5	192631	35.61	36.55
5	193188	35.71	36.55
5	193745	35.81	36.55
5	194302	35.91	36.55
5	194867	36.01	36.55
5	195424	36.11	36.55
5	195981	36.21	36.55
5	196538	36.31	36.55
5	197095	36.41	36.55
5	197652	36.51	36.55
5	198209	36.61	36.55
5	198766	36.71	36.55
5	199323	36.81	36.55
5	199880	36.91	36.55
5	200445	37.01	36.55
5	201002	37.11	36.55
4	232	1.11	156.1155174258
4	788	1.21	158.33773956502
4	1344	1.31	160.55996170694
4	1900	1.41	162.78218385254
4	2456	1.51	165.00440600252
4	3012	1.61	167.22662815739
4	3568	1.71	169.44885031748
4	4124	1.81	171.67107248297
4	4680	1.91	173.89329465391
4	5244	2.01	176.11551683023
4	5800	2.11	178.33773901179
4	6356	2.21	180.55996119839
4	6912	2.31	182.78218338975
4	7468	2.41	185.00440558557
4	8024	2.51	187.22662778553
4	8580	2.61	189.44884998928
4	9136	2.71	191.67107219646
4	9692	2.81	193.89329440675
4	10248	2.91	196.11551661978
4	10812	3.01	198.33773883523
4	11368	3.11	200.5599610528
4	11924	3.21	202.78218327217
4	12480	3.31	205.00440549309
4	13036	3.41	207.22662771529
4	13592	3.51	209.44884993854
4	14148	3.61	211.67107216264
4	14704	3.71	213.89329438741
4	15260	3.81	216.11551661266
4	15816	3.91	218.33773883828
4	16380	4.01	220.55996106412
4	16936	4.11	222.78218329008
4	17492	4.21	225.00440551608
4	18048	4.31	227.22662774204
4	18604	4.41	229.44884996789
4	19160	4.51	231.6710721936
4	19716	4.61	233.89329441913
4	20272	4.71	236.11551664445
4	20828	4.81	238.33773886954
4	21384	4.91	240.55996109439
4	21949	5.01	242.782183319
4	22506	5.11	245.00440690865
4	23063	5.21	247.22685699978
4	23620	5.31	249.45030718405
4	24177	5.41	251.67598208914
4	24734	5.51	253.90543169878
4	25291	5.61	256.1403908754
4	25848	5.71	258.38254510356
4	26405	5.81	260.63329642373
4	26962	5.91	262.8937951292
4	27527	6.01	265.16498486114
4	28084	6.11	267.44763973398
4	28641	6.21	269.74239479115
4	29198	6.31	272.04977098947
4	29755	6.41	274.37019569498
4	30312	6.51	276.704019465
4	30869	6.61	279.05150004946
4	31426	6.71	281.41259101542
4	31983	6.81	283.78676584632
4	32540	6.91	286.17303576583
4	33105	7.01	288.56998606116
4	33662	7.11	290.9758196178
4	34219	7.21	293.38840650981
4	34776	7.31	295.80533847784
4	35333	7.41	298.22398758493
4	35890	7.51	300.64164090385
4	36447	7.61	303.05580062823
4	37004	7.71	305.46439961277
4	37561	7.81	307.86574207834
4	38118	7.91	310.25843689541
4	38683	8.01	312.64134285322
4	39240	8.11	315.01352376149
4	39797	8.21	317.3742116181
4	40354	8.31	319.72277639382
4	40911	8.41	322.05870124523
4	41468	8.51	324.38156218072
4	42025	8.61	326.69101137951
4	42582	8.71	328.98676350738
4	43139	8.81	331.26858449092
4	43696	8.91	333.53628230838
4	44261	9.01	335.78969943506
4	44818	9.11	338.02870664584
4	45375	9.21	340.2531979311
4	45932	9.31	342.46308632605
4	46489	9.41	344.65830048924
4	47046	9.51	346.83878415868
4	47603	9.61	349.00473263473
4	48160	9.71	351.15700723872
4	48717	9.81	353.29709973305
4	49274	9.91	355.42702723076
4	49839	10.01	357.54922757137
4	50396	10.11	359.6664564717
4	50953	10.21	361.78168669102
4	51510	10.31	363.89784644324
4	52067	10.41	366.01745703751
4	52624	10.51	368.14259329969
4	53181	10.61	370.27495730965
4	53738	10.71	372.41594536571
4	54295	10.81	374.56670291883
4	54852	10.91	376.72816963776
4	55417	11.01	378.90111637816
4	55974	11.11	381.08617551014
4	56531	11.21	383.28386579748
4	57088	11.31	385.49461280714
4	57645	11.41	387.71876565226
4	58202	11.51	389.95661072721
4	58759	11.61	392.20838297512
4	59316	11.71	394.4742751312
4	59873	11.81	396.75444530543
4	60430	11.91	399.04900840368
4	60995	12.01	401.35775939619
4	61552	12.11	403.67985296696
4	62109	12.21	406.01386001468
4	62666	12.31	408.35785464871
4	63223	12.41	410.7095029803
4	63780	12.51	413.06615234586
4	64337	12.61	415.42492053719
4	64894	12.71	417.78291880516
4	65451	12.81	420.13760137533
4	66008	12.91	422.48686914295
4	66573	13.01	424.829000111
4	67130	13.11	427.16258164215
4	67687	13.21	429.48645488179
4	68244	13.31	431.79966916547
4	68801	13.41	434.10144461726
4	69358	13.51	436.39114146725
4	69915	13.61	438.66823488129
4	70472	13.71	440.93229431258
4	71029	13.81	443.18296656277
4	71586	13.91	445.4199618862
4	72151	14.01	447.64304259052
4	72708	14.11	449.85201368521
4	73265	14.21	452.04671521011
4	73822	14.31	454.22701594221
4	74379	14.41	456.39280901397
4	74936	14.51	458.54416096322
4	75493	14.61	460.68168709601
4	76050	14.71	462.80663114694
4	76607	14.81	464.92077893337
4	77164	14.91	467.02636393949
4	77729	15.01	469.12597276739
4	78286	15.11	471.22245133545
4	78843	15.21	473.31874251743
4	79400	15.31	475.41755546655
4	79957	15.41	477.52113191855
4	80514	15.51	479.63131087755
4	81071	15.61	481.74960096744
4	81628	15.71	483.87723978526
4	82185	15.81	486.01524259165
4	82742	15.91	488.16444225395
4	83307	16.01	490.32552201346
4	83864	16.11	492.49904236602
4	84421	16.21	494.68546311344
4	84978	16.31	496.88516145335
4	85535	16.41	499.09844681919
4	86092	16.51	501.32557305415
4	86649	16.61	503.56674839807
4	87206	16.71	505.82214368014
4	87763	16.81	508.09189903979
4	88320	16.91	510.37612842571
4	88885	17.01	512.67473533391
4	89442	17.11	514.98702139414
4	89999	17.21	517.31167294513
4	90556	17.31	519.64685069007
4	91113	17.41	521.9902821169
4	91670	17.51	524.33935415106
4	92227	17.61	526.69120532512
4	92784	17.71	529.04290999402
4	93341	17.81	531.39181589359
4	93898	17.91	533.73573105199
4	94463	18.01	536.07285728885
4	95020	18.11	538.40171946998
4	95577	18.21	540.72110747152
4	96134	18.31	543.03002857046
4	96691	18.41	545.32766838813
4	97248	18.51	547.61335885039
4	97805	18.61	549.88655190376
4	98362	18.71	552.14679795349
4	98919	18.81	554.39372817529
4	99476	18.91	556.62704000478
4	100041	19.01	558.8464852338
4	100598	19.11	561.0518602452
4	101155	19.21	563.24299800198
4	101712	19.31	565.41976147564
4	102269	19.41	567.58203917382
4	102826	19.51	569.72991626241
4	103383	19.61	571.8640602784
4	103940	19.71	573.98575895597
4	104497	19.81	576.09683175482
4	105054	19.91	578.19953670161
4	105619	20.01	580.29647703558
4	106176	20.11	582.39050843497
4	106733	20.21	584.48456289176
4	107290	20.31	586.58131370208
4	107847	20.41	588.68297123693
4	108404	20.51	590.79134877041
4	108961	20.61	592.90793381885
4	109518	20.71	595.03394666372
4	110075	20.81	597.17038836088
4	110632	20.91	599.31808012478
4	111197	21.01	601.4776956373
4	111754	21.11	603.64978755225
4	112311	21.21	605.8348092382
4	112868	21.31	608.03313261533
4	113425	21.41	610.24506278769
4	113982	21.51	612.47085004689
4	114539	21.61	614.71069971923
4	115096	21.71	616.96478024378
4	115653	21.81	619.23322979925
4	116210	21.91	621.51616079164
4	116775	22.01	623.81348392875
4	117332	22.11	626.12452025085
4	117889	22.21	628.44797239772
4	118446	22.31	630.78201354229
4	119003	22.41	633.12438027561
4	119560	22.51	635.47246570112
4	120117	22.61	637.82341198432
4	120674	22.71	640.1742894779
4	121231	22.81	642.5224326768
4	121788	22.91	644.86563802622
4	122353	23.01	647.2020978437
4	122910	23.11	649.53032920003
4	123467	23.21	651.84911557674
4	124024	23.31	654.15745900498
4	124581	23.41	656.45454080268
4	125138	23.51	658.73968936542
4	125695	23.61	661.01235374365
4	126252	23.71	663.27208196683
4	126809	23.81	665.51850326171
4	127366	23.91	667.75131346509
4	127931	24.01	669.97026305719
4	128488	24.11	672.17514734488
4	129045	24.21	674.36579840853
4	129602	24.31	676.54207849551
4	130159	24.41	678.70387553828
4	130716	24.51	680.8512772974
4	131273	24.61	682.98495849352
4	131830	24.71	685.1062129145
4	132387	24.81	687.21686465327
4	132944	24.91	689.31917512124
4	133509	25.01	691.41574985762
4	134066	25.11	693.50944589653
4	134623	25.21	695.60319375522
4	135180	25.31	697.69966182975
4	135737	25.41	699.80105620423
4	136294	25.51	701.90918663599
4	136851	25.61	704.0255377564
4	137408	25.71	706.15132748026
4	137965	25.81	708.28755492192
4	138522	25.91	710.43503970314
4	139087	26.01	712.59445419922
4	139644	26.11	714.76634999211
4	140201	26.21	716.95117957112
4	140758	26.31	719.14931413509
4	141315	26.41	721.36105819635
4	141872	26.51	723.58666156107
4	142429	26.61	725.82632915734
4	142986	26.71	728.08022909753
4	143543	26.81	730.34849929238
4	144100	26.91	732.63125193503
4	144665	27.01	734.9283986965
4	145222	27.11	737.23926328302
4	145779	27.21	739.56255058099
4	146336	27.31	741.89643548286
4	146893	27.41	744.2386558359
4	147450	27.51	746.5866055972
4	148007	27.61	748.9374274356
4	148564	27.71	751.28819115669
4	149121	27.81	753.63622943726
4	149678	27.91	755.97933713183
4	150243	28.01	758.31570525306
4	150800	28.11	760.64384980126
4	151357	28.21	762.9625533798
4	151914	28.31	765.27081729942
4	152471	28.41	767.5678222871
4	153028	28.51	769.85289625361
4	153585	28.61	772.12548785167
4	154142	28.71	774.3851447845
4	154699	28.81	776.6314960112
4	155256	28.91	778.864237149
4	155821	29.01	781.08311849799
4	156378	29.11	783.2879352173
4	156935	29.21	785.47851926607
4	157492	29.31	787.65473279225
4	158049	29.41	789.8164636493
4	158606	29.51	791.96379995526
4	159163	29.61	794.0974174201
4	159720	29.71	796.21861066544
4	160277	29.81	798.32920442231
4	160834	29.91	800.43146056833
4	161399	30.01	802.52798495948
4	161956	30.11	804.6216348167
4	162513	30.21	806.71534045418
4	163070	30.31	808.8117695933
4	163627	30.41	810.91312772784
4	164184	30.51	813.02122413091
4	164741	30.61	815.1375430366
4	165298	30.71	817.26330203385
4	165855	30.81	819.39949996966
4	166412	30.91	821.54695624647
4	166977	31.01	823.70634305968
4	167534	31.11	825.87821184365
4	168091	31.21	828.06301496661
4	168648	31.31	830.26112352807
4	169205	31.41	832.47284195888
4	169762	31.51	834.69841999839
4	170319	31.61	836.93806251982
4	170876	31.71	839.1919375906
4	171433	31.81	841.46018308453
4	171990	31.91	843.74291116545
4	172555	32.01	846.04003363705
4	173112	32.11	848.3508745727
4	173669	32.21	850.67413916821
4	174226	32.31	853.00800255282
4	174783	32.41	855.35020274681
4	175340	32.51	857.69813382484
4	175897	32.61	860.04893852506
4	176454	32.71	862.39968657773
4	177011	32.81	864.74771040925
4	177568	32.91	867.09080465507
4	178133	33.01	869.42716014814
4	178690	33.11	871.75529274136
4	179247	33.21	874.07398491715
4	179804	33.31	876.38223788706
4	180361	33.41	878.67923229667
4	180918	33.51	880.96429598997
4	181475	33.61	883.23687756494
4	182032	33.71	885.49652467985
4	182589	33.81	887.74286625693
4	183146	33.91	889.97559788319
4	183711	34.01	892.19446983391
4	184268	34.11	894.39927724788
4	184825	34.21	896.58985206752
4	185382	34.31	898.76605642711
4	185939	34.41	900.92777816923
4	186496	34.51	903.07510546114
4	187053	34.61	905.20871414907
4	187610	34.71	907.32989896945
4	188167	34.81	909.4404847412
4	188724	34.91	911.54273340613
4	189289	35.01	913.63925086386
4	189846	35.11	915.73289436105
4	190403	35.21	917.82659418393
4	190960	35.31	919.92301796096
4	191517	35.41	922.02437110463
4	192074	35.51	924.13246282134
4	192631	35.61	926.24877729051
4	193188	35.71	928.37453205616
4	193745	35.81	930.5107259285
4	194302	35.91	932.65817827975
4	194867	36.01	934.81756128055
4	195424	36.11	936.98942634491
4	195981	36.21	939.1742258244
4	196538	36.31	941.37233080486
4	197095	36.41	943.58404570592
4	197652	36.51	945.80962025769
4	198209	36.61	948.04925932588
4	198766	36.71	950.3031309717
4	199323	36.81	952.57137306388
4	199880	36.91	954.85409776222
4	200445	37.01	957.15121688868
4	201002	37.11	959.46205456719
3	232	1.11	22.222221380388
3	788	1.21	22.222221400033
3	1344	1.31	22.222221430895
3	1900	1.41	22.222221470405
3	2456	1.51	22.222221516302
3	3012	1.61	22.222221566615
3	3568	1.71	22.222221619648
3	4124	1.81	22.222221673961
3	4680	1.91	22.22222172835
3	5244	2.01	22.222221781827
3	5800	2.11	22.222221833594
3	6356	2.21	22.222221883033
3	6912	2.31	22.222221929673
3	7468	2.41	22.222221973181
3	8024	2.51	22.22222201334
3	8580	2.61	22.22222205003
3	9136	2.71	22.222222083218
3	9692	2.81	22.222222112937
3	10248	2.91	22.222222139276
3	10812	3.01	22.222222162372
3	11368	3.11	22.222222182391
3	11924	3.21	22.222222199529
3	12480	3.31	22.222222213995
3	13036	3.41	22.222222226009
3	13592	3.51	22.222222235797
3	14148	3.61	22.222222243584
3	14704	3.71	22.222222249588
3	15260	3.81	22.222222254023
3	15816	3.91	22.22222225709
3	16380	4.01	22.222222258982
3	16936	4.11	22.222222259874
3	17492	4.21	22.22222225993
3	18048	4.31	22.2222222593
3	18604	4.41	22.222222258118
3	19160	4.51	22.222222256505
3	19716	4.61	22.222222254566
3	20272	4.71	22.222222252396
3	20828	4.81	22.222222250075
3	21384	4.91	22.222222247671
3	21949	5.01	22.222222245242
3	22506	5.11	22.222290507125
3	23063	5.21	22.226504077641
3	23620	5.31	22.240220338524
3	24177	5.41	22.267500757653
3	24734	5.51	22.311166408855
3	25291	5.61	22.372508246834
3	25848	5.71	22.449772173803
3	26405	5.81	22.540103259952
3	26962	5.91	22.641153967919
3	27527	6.01	22.750998499419
3	28084	6.11	22.868057029105
3	28641	6.21	22.991033549938
3	29198	6.31	23.118864884746
3	29755	6.41	23.250678857945
3	30312	6.51	23.385758398132
3	30869	6.61	23.522833432233
3	31426	6.71	23.657796347927
3	31983	6.81	23.785829581157
3	32540	6.91	23.902426182221
3	33105	7.01	24.003469344582
3	33662	7.11	24.085300499944
3	34219	7.21	24.144775797594
3	34776	7.31	24.179310887614
3	35333	7.41	24.18693697487
3	35890	7.51	24.167648012512
3	36447	7.61	24.124876590017
3	37004	7.71	24.062841371271
3	37561	7.81	23.985003130021
3	38118	7.91	23.894200906128
3	38683	8.01	23.792763701114
3	39240	8.11	23.682602107418
3	39797	8.21	23.565283476299
3	40354	8.31	23.442093581698
3	40911	8.41	23.314087206082
3	41468	8.51	23.182129638453
3	42025	8.61	23.046930717174
3	42582	8.71	22.90907275694
3	43139	8.81	22.769033458618
3	43696	8.91	22.627204703306
3	44261	9.01	22.483907969993
3	44818	9.11	22.339406983423
3	45375	9.21	22.193918089742
3	45932	9.31	22.047618768141
3	46489	9.41	21.900654613374
3	47046	9.51	21.753242751854
3	47603	9.61	21.609901385757
3	48160	9.71	21.477532883517
3	48717	9.81	21.362073971413
3	49274	9.91	21.268410541013
3	49839	10.01	21.200386497448
3	50396	10.11	21.160826131916
3	50953	10.21	21.151517345739
3	51510	10.31	21.170320646314
3	52067	10.41	21.212693656992
3	52624	10.51	21.274402039281
3	53181	10.61	21.351972160799
3	53738	10.71	21.442554433126
3	54295	10.81	21.543811201247
3	54852	10.91	21.653824773844
3	55417	11.01	21.771021976106
3	55974	11.11	21.894112256751
3	56531	11.21	22.022036914228
3	57088	11.31	22.15392744452
3	57645	11.41	22.289071371833
3	58202	11.51	22.426884217862
3	58759	11.61	22.566886506821
3	59316	11.71	22.708684901566
3	59873	11.81	22.851956728639
3	60430	11.91	22.996030636022
3	60995	12.01	23.135871741664
3	61552	12.11	23.265091831195
3	62109	12.21	23.37815370659
3	62666	12.31	23.470398479481
3	63223	12.41	23.538058615042
3	63780	12.51	23.578257676094
3	64337	12.61	23.589039899577
3	64894	12.71	23.571771817424
3	65451	12.81	23.530658220569
3	66008	12.91	23.469982996268
3	66573	13.01	23.39326042415
3	67130	13.11	23.303373437532
3	67687	13.21	23.20268704586
3	68244	13.31	23.093141380613
3	68801	13.41	22.97632802535
3	69358	13.51	22.853552632938
3	69915	13.61	22.725886293488
3	70472	13.71	22.594207673951
3	71029	13.81	22.459237587264
3	71586	13.91	22.321567351098
3	72151	14.01	22.181682051897
3	72708	14.11	22.039979629502
3	73265	14.21	21.896786533182
3	73822	14.31	21.752370565044
3	74379	14.41	21.606990468916
3	74936	14.51	21.46377531614
3	75493	14.61	21.329003640752
3	76050	14.71	21.208703411767
3	76607	14.81	21.107966374326
3	77164	14.91	21.030937646541
3	77729	15.01	20.980819133086
3	78286	15.11	20.959864153028
3	78843	15.21	20.968113302143
3	79400	15.31	21.001828232614
3	79957	15.41	21.056433973525
3	80514	15.51	21.128177455263
3	81071	15.61	21.213979853553
3	81628	15.71	21.311315460134
3	82185	15.81	21.418112314529
3	82742	15.91	21.532670687482
3	83307	16.01	21.65359620899
3	83864	16.11	21.779745009989
3	84421	16.21	21.910178719438
3	84978	16.31	22.04412754625
3	85535	16.41	22.180959993615
3	86092	16.51	22.320158014196
3	86649	16.61	22.461296628745
3	87206	16.71	22.604027206256
3	87763	16.81	22.748063747876
3	88320	16.91	22.893121062247
3	88885	17.01	23.035415892366
3	89442	17.11	23.168450652444
3	89999	17.21	23.28637522879
3	90556	17.31	23.384255235879
3	91113	17.41	23.458083279214
3	91670	17.51	23.504776599185
3	92227	17.61	23.522191087294
3	92784	17.71	23.510795234811
3	93341	17.81	23.474498911582
3	93898	17.91	23.417775529511
3	94463	18.01	23.344294844447
3	95020	18.11	23.257067334362
3	95577	18.21	23.158562639743
3	96134	18.31	23.050806725964
3	96691	18.41	22.935461590275
3	97248	18.51	22.813890649294
3	97805	18.61	22.687212379529
3	98362	18.71	22.556344321276
3	98919	18.81	22.422039177162
3	99476	18.91	22.284914425505
3	100041	19.01	22.145476613593
3	100598	19.11	22.004141286635
3	101155	19.21	21.861249336433
3	101712	19.31	21.717080413001
3	102269	19.41	21.571909863106
3	102826	19.51	21.429278340793
3	103383	19.61	21.295604178514
3	103940	19.71	21.176803340552
3	104497	19.81	21.077868481133
3	105054	19.91	21.002857998561
3	105619	20.01	20.954898781713
3	106176	20.11	20.936175392548
3	106733	20.21	20.946407816827
3	107290	20.31	20.981749723707
3	107847	20.41	21.03769015195
3	108404	20.51	21.110528542171
3	108961	20.61	21.197229146774
3	109518	20.71	21.295301595376
3	110075	20.81	21.402702916871
3	110632	20.91	21.517757163382
3	111197	21.01	21.639089473919
3	111754	21.11	21.765571983607
3	112311	21.21	21.896279450413
3	112868	21.31	22.030452853606
3	113425	21.41	22.167469531823
3	113982	21.51	22.306818685871
3	114539	21.61	22.448081282503
3	115096	21.71	22.590913568504
3	115653	21.81	22.735033546511
3	116210	21.91	22.880162447437
3	116775	22.01	23.022670267421
3	117332	22.11	23.156108357089
3	117889	22.21	23.274585173836
3	118446	22.31	23.373129675149
3	119003	22.41	23.447702381669
3	119560	22.51	23.495192775121
3	120117	22.61	23.513431301619
3	120674	22.71	23.502767871627
3	121231	22.81	23.467072389944
3	121788	22.91	23.410841907214
3	122353	23.01	23.337765571286
3	122910	23.11	23.250869768327
3	123467	23.21	23.152637189085
3	124024	23.31	23.045104504693
3	124581	23.41	22.929942494852
3	125138	23.51	22.80852178085
3	125695	23.61	22.68196674953
3	126252	23.71	22.551199789728
3	126809	23.81	22.416977581555
3	127366	23.91	22.279920866256
3	127931	24.01	22.140538867856
3	128488	24.11	21.999249327416
3	129045	24.21	21.856394938108
3	129602	24.31	21.71225682769
3	130159	24.41	21.567112496496
3	130716	24.51	21.424558793937
3	131273	24.61	21.291033120082
3	131830	24.71	21.172436080201
3	132387	24.81	21.073746736753
3	132944	24.91	20.999011589812
3	133509	25.01	20.951347232722
3	134066	25.11	20.932928788829
3	134623	25.21	20.943432285463
3	135180	25.31	20.978996566089
3	135737	25.41	21.035119418254
3	136294	25.51	21.108107459632
3	136851	25.61	21.194930830305
3	137408	25.71	21.293103989846
3	137965	25.81	21.400587929387
3	138522	25.91	21.515709951472
3	139087	26.01	21.637097861586
3	139644	26.11	21.763625982293
3	140201	26.21	21.89437086602
3	140758	26.31	22.028574964121
3	141315	26.41	22.165616822853
3	141872	26.51	22.304986633695
3	142429	26.61	22.446266176092
3	142986	26.71	22.589112363523
3	143543	26.81	22.733243745544
3	144100	26.91	22.878382351008
3	144665	27.01	23.02091902685
3	145222	27.11	23.154412198376
3	145779	27.21	23.272964623492
3	146336	27.31	23.371600215963
3	146893	27.41	23.446275081122
3	147450	27.51	23.4938748801
3	148007	27.61	23.512226556393
3	148564	27.71	23.501663708253
3	149121	27.81	23.46605073872
3	149678	27.91	23.409887944692
3	150243	28.01	23.336867137076
3	150800	28.11	23.250016886674
3	151357	28.21	23.151821676394
3	151914	28.31	23.044319647566
3	152471	28.41	22.929182785965
3	153028	28.51	22.80778270228
3	153585	28.61	22.681244595004
3	154142	28.71	22.550491518813
3	154699	28.81	22.416280700038
3	155256	28.91	22.279233328011
3	155821	29.01	22.139858994348
3	156378	29.11	21.998575741663
3	156935	29.21	21.855726510503
3	157492	29.31	21.711592631564
3	158049	29.41	21.566451901273
3	158606	29.51	21.42390890677
3	159163	29.61	21.290403673535
3	159720	29.71	21.171834691746
3	160277	29.81	21.073179152124
3	160834	29.91	20.998481916211
3	161399	30.01	20.950858159518
3	161956	30.11	20.932481705563
3	162513	30.21	20.943022528176
3	163070	30.31	20.978617429104
3	163627	30.41	21.034765400583
3	164184	30.51	21.107774048547
3	164741	30.61	21.194614323799
3	165298	30.71	21.292801350981
3	165855	30.81	21.400296666818
3	166412	30.91	21.515428021429
3	166977	31.01	21.636823587464
3	167534	31.11	21.763357988693
3	168091	31.21	21.894108024635
3	168648	31.31	22.028316349348
3	169205	31.41	22.165361675373
3	169762	31.51	22.304734330603
3	170319	31.61	22.446016206389
3	170876	31.71	22.588864308011
3	171433	31.81	22.732997260337
3	171990	31.91	22.878137202098
3	172555	32.01	23.020677851725
3	173112	32.11	23.154178608822
3	173669	32.21	23.272741446377
3	174226	32.31	23.371389583548
3	174783	32.41	23.446078517603
3	175340	32.51	23.493693383512
3	175897	32.61	23.512060642398
3	176454	32.71	23.501511646042
3	177011	32.81	23.465910039798
3	177568	32.91	23.409756567623
3	178133	33.01	23.336743407174
3	178690	33.11	23.249899430112
3	179247	33.21	23.151709366157
3	179804	33.31	23.044211559107
3	180361	33.41	22.929078160835
3	180918	33.51	22.807680918285
3	181475	33.61	22.681145141731
3	182032	33.71	22.550393977543
3	182589	33.81	22.416184727275
3	183146	33.91	22.279138641972
3	183711	34.01	22.139765363871
3	184268	34.11	21.998482977113
3	184825	34.21	21.855634456316
3	185382	34.31	21.711501160121
3	185939	34.41	21.566360925734
3	186496	34.51	21.423819405916
3	187053	34.61	21.29031698771
3	187610	34.71	21.17175187001
3	188167	34.81	21.073100985766
3	188724	34.91	20.998408970865
3	189289	35.01	20.950790805558
3	189846	35.11	20.932420134352
3	190403	35.21	20.942966097406
3	190960	35.31	20.978565215287
3	191517	35.41	21.034716646136
3	192074	35.51	21.107728131987
3	192631	35.61	21.194570735296
3	193188	35.71	21.292759672295
3	193745	35.81	21.400256554848
3	194302	35.91	21.515389194711
3	194867	36.01	21.636785815101
3	195424	36.11	21.763321081268
3	195981	36.21	21.894071826761
3	196538	36.31	22.028280733552
3	197095	36.41	22.165326537085
3	197652	36.51	22.304699584037
3	198209	36.61	22.445981781171
3	198766	36.71	22.588830146411
3	199323	36.81	22.732963314995
3	199880	36.91	22.878103440787
3	200445	37.01	23.020644637675
3	201002	37.11	23.154146439438
1	232	1.11	0
1	788	1.21	0
1	1344	1.31	0
1	1900	1.41	0
1	2456	1.51	0
1	3012	1.61	0
1	3568	1.71	0
1	4124	1.81	0
1	4680	1.91	0
1	5244	2.01	0
1	5800	2.11	0
1	6356	2.21	0
1	6912	2.31	0
1	7468	2.41	0
1	8024	2.51	0
1	8580	2.61	0
1	9136	2.71	0
1	9692	2.81	0
1	10248	2.91	0
1	10812	3.01	0
1	11368	3.11	0
1	11924	3.21	0
1	12480	3.31	0
1	13036	3.41	0
1	13592	3.51	0
1	14148	3.61	0
1	14704	3.71	0
1	15260	3.81	0
1	15816	3.91	0
1	16380	4.01	0
1	16936	4.11	0
1	17492	4.21	0
1	18048	4.31	0
1	18604	4.41	0
1	19160	4.51	0
1	19716	4.61	0
1	20272	4.71	0
1	20828	4.81	0
1	21384	4.91	0
1	21949	5.01	0
1	22506	5.11	0
1	23063	5.21	0
1	23620	5.31	0
1	24177	5.41	0
1	24734	5.51	0
1	25291	5.61	0
1	25848	5.71	0
1	26405	5.81	0
1	26962	5.91	0
1	27527	6.01	0
1	28084	6.11	0
1	28641	6.21	0
1	29198	6.31	0
1	29755	6.41	0
1	30312	6.51	0
1	30869	6.61	0
1	31426	6.71	0
1	31983	6.81	0
1	32540	6.91	0
1	33105	7.01	0
1	33662	7.11	0
1	34219	7.21	0
1	34776	7.31	0
1	35333	7.41	0
1	35890	7.51	0
1	36447	7.61	0
1	37004	7.71	0
1	37561	7.81	0
1	38118	7.91	0
1	38683	8.01	0
1	39240	8.11	0
1	39797	8.21	0
1	40354	8.31	0
1	40911	8.41	0
1	41468	8.51	0
1	42025	8.61	0
1	42582	8.71	0
1	43139	8.81	0
1	43696	8.91	0
1	44261	9.01	0
1	44818	9.11	0
1	45375	9.21	0
1	45932	9.31	0
1	46489	9.41	0
1	47046	9.51	0
1	47603	9.61	0
1	48160	9.71	0
1	48717	9.81	0
1	49274	9.91	0
1	49839	10.01	0
1	50396	10.11	0
1	50953	10.21	0
1	51510	10.31	0
1	52067	10.41	0
1	52624	10.51	0
1	53181	10.61	0
1	53738	10.71	0
1	54295	10.81	0
1	54852	10.91	0
1	55417	11.01	0
1	55974	11.11	0
1	56531	11.21	0
1	57088	11.31	0
1	57645	11.41	0
1	58202	11.51	0
1	58759	11.61	0
1	59316	11.71	0
1	59873	11.81	0
1	60430	11.91	0
1	60995	12.01	0
1	61552	12.11	0
1	62109	12.21	0
1	62666	12.31	0
1	63223	12.41	0
1	63780	12.51	0
1	64337	12.61	0
1	64894	12.71	0
1	65451	12.81	0
1	66008	12.91	0
1	66573	13.01	0
1	67130	13.11	0
1	67687	13.21	0
1	68244	13.31	0
1	68801	13.41	0
1	69358	13.51	0
1	69915	13.61	0
1	70472	13.71	0
1	71029	13.81	0
1	71586	13.91	0
1	72151	14.01	0
1	72708	14.11	0
1	73265	14.21	0
1	73822	14.31	0
1	74379	14.41	0
1	74936	14.51	0
1	75493	14.61	0
1	76050	14.71	0
1	76607	14.81	0
1	77164	14.91	0
1	77729	15.01	0
1	78286	15.11	0
1	78843	15.21	0
1	79400	15.31	0
1	79957	15.41	0
1	80514	15.51	0
1	81071	15.61	0
1	81628	15.71	0
1	82185	15.81	0
1	82742	15.91	0
1	83307	16.01	0
1	83864	16.11	0
1	84421	16.21	0
1	84978	16.31	0
1	85535	16.41	0
1	86092	16.51	0
1	86649	16.61	0
1	87206	16.71	0
1	87763	16.81	0
1	88320	16.91	0
1	88885	17.01	0
1	89442	17.11	0
1	89999	17.21	0
1	90556	17.31	0
1	91113	17.41	0
1	91670	17.51	0
1	92227	17.61	0
1	92784	17.71	0
1	93341	17.81	0
1	93898	17.91	0
1	94463	18.01	0
1	95020	18.11	0
1	95577	18.21	0
1	96134	18.31	0
1	96691	18.41	0
1	97248	18.51	0
1	97805	18.61	0
1	98362	18.71	0
1	98919	18.81	0
1	99476	18.91	0
1	100041	19.01	0
1	100598	19.11	0
1	101155	19.21	0
1	101712	19.31	0
1	102269	19.41	0
1	102826	19.51	0
1	103383	19.61	0
1	103940	19.71	0
1	104497	19.81	0
1	105054	19.91	0
1	105619	20.01	0
1	106176	20.11	0
1	106733	20.21	0
1	107290	20.31	0
1	107847	20.41	0
1	108404	20.51	0
1	108961	20.61	0
1	109518	20.71	0
1	110075	20.81	0
1	110632	20.91	0
1	111197	21.01	0
1	111754	21.11	0
1	112311	21.21	0
1	112868	21.31	0
1	113425	21.41	0
1	113982	21.51	0
1	114539	21.61	0
1	115096	21.71	0
1	115653	21.81	0
1	116210	21.91	0
1	116775	22.01	0
1	117332	22.11	0
1	117889	22.21	0
1	118446	22.31	0
1	119003	22.41	0
1	119560	22.51	0
1	120117	22.61	0
1	120674	22.71	0
1	121231	22.81	0
1	121788	22.91	0
1	122353	23.01	0
1	122910	23.11	0
1	123467	23.21	0
1	124024	23.31	0
1	124581	23.41	0
1	125138	23.51	0
1	125695	23.61	0
1	126252	23.71	0
1	126809	23.81	0
1	127366	23.91	0
1	127931	24.01	0
1	128488	24.11	0
1	129045	24.21	0
1	129602	24.31	0
1	130159	24.41	0
1	130716	24.51	0
1	131273	24.61	0
1	131830	24.71	0
1	132387	24.81	0
1	132944	24.91	0
1	133509	25.01	0
1	134066	25.11	0
1	134623	25.21	0
1	135180	25.31	0
1	135737	25.41	0
1	136294	25.51	0
1	136851	25.61	0
1	137408	25.71	0
1	137965	25.81	0
1	138522	25.91	0
1	139087	26.01	0
1	139644	26.11	0
1	140201	26.21	0
1	140758	26.31	0
1	141315	26.41	0
1	141872	26.51	0
1	142429	26.61	0
1	142986	26.71	0
1	143543	26.81	0
1	144100	26.91	0
1	144665	27.01	0
1	145222	27.11	0
1	145779	27.21	0
1	146336	27.31	0
1	146893	27.41	0
1	147450	27.51	0
1	148007	27.61	0
1	148564	27.71	0
1	149121	27.81	0
1	149678	27.91	0
1	150243	28.01	0
1	150800	28.11	0
1	151357	28.21	0
1	151914	28.31	0
1	152471	28.41	0
1	153028	28.51	0
1	153585	28.61	0
1	154142	28.71	0
1	154699	28.81	0
1	155256	28.91	0
1	155821	29.01	0
1	156378	29.11	0
1	156935	29.21	0
1	157492	29.31	0
1	158049	29.41	0
1	158606	29.51	0
1	159163	29.61	0
1	159720	29.71	0
1	160277	29.81	0
1	160834	29.91	0
1	161399	30.01	0
1	161956	30.11	0
1	162513	30.21	0
1	163070	30.31	0
1	163627	30.41	0
1	164184	30.51	0
1	164741	30.61	0
1	165298	30.71	0
1	165855	30.81	0
1	166412	30.91	0
1	166977	31.01	0
1	167534	31.11	0
1	168091	31.21	0
1	168648	31.31	0
1	169205	31.41	0
1	169762	31.51	0
1	170319	31.61	0
1	170876	31.71	0
1	171433	31.81	0
1	171990	31.91	0
1	172555	32.01	0
1	173112	32.11	0
1	173669	32.21	0
1	174226	32.31	0
1	174783	32.41	0
1	175340	32.51	0
1	175897	32.61	0
1	176454	32.71	0
1	177011	32.81	0
1	177568	32.91	0
1	178133	33.01	0
1	178690	33.11	0
1	179247	33.21	0
1	179804	33.31	0
1	180361	33.41	0
1	180918	33.51	0
1	181475	33.61	0
1	182032	33.71	0
1	182589	33.81	0
1	183146	33.91	0
1	183711	34.01	0
1	184268	34.11	0
1	184825	34.21	0
1	185382	34.31	0
1	185939	34.41	0
1	186496	34.51	0
1	187053	34.61	0
1	187610	34.71	0
1	188167	34.81	0
1	188724	34.91	0
1	189289	35.01	0
1	189846	35.11	0
1	190403	35.21	0
1	190960	35.31	0
1	191517	35.41	0
1	192074	35.51	0
1	192631	35.61	0
1	193188	35.71	0
1	193745	35.81	0
1	194302	35.91	0
1	194867	36.01	0
1	195424	36.11	0
1	195981	36.21	0
1	196538	36.31	0
1	197095	36.41	0
1	197652	36.51	0
1	198209	36.61	0
1	198766	36.71	0
1	199323	36.81	0
1	199880	36.91	0
1	200445	37.01	0
1	201002	37.11	0
0	232	1.11	-1
0	788	1.21	-1
0	1344	1.31	-1
0	1900	1.41	-1
0	2456	1.51	-1
0	3012	1.61	-1
0	3568	1.71	-1
0	4124	1.81	-1
0	4680	1.91	-1
0	5244	2.01	-1
0	5800	2.11	-1
0	6356	2.21	-1
0	6912	2.31	-1
0	7468	2.41	-1
0	8024	2.51	-1
0	8580	2.61	-1
0	9136	2.71	-1
0	9692	2.81	-1
0	10248	2.91	-1
0	10812	3.01	-1
0	11368	3.11	-1
0	11924	3.21	-1
0	12480	3.31	-1
0	13036	3.41	-1
0	13592	3.51	-1
0	14148	3.61	-1
0	14704	3.71	-1
0	15260	3.81	-1
0	15816	3.91	-1
0	16380	4.01	-1
0	16936	4.11	-1
0	17492	4.21	-1
0	18048	4.31	-1
0	18604	4.41	-1
0	19160	4.51	-1
0	19716	4.61	-1
0	20272	4.71	-1
0	20828	4.81	-1
0	21384	4.91	-1
0	21949	5.01	-1
0	22506	5.11	-1
0	23063	5.21	-1
0	23620	5.31	-1
0	24177	5.41	-1
0	24734	5.51	-1
0	25291	5.61	-1
0	25848	5.71	-1
0	26405	5.81	-1
0	26962	5.91	-1
0	27527	6.01	-1
0	28084	6.11	-1
0	28641	6.21	-1
0	29198	6.31	-1
0	29755	6.41	-1
0	30312	6.51	-1
0	30869	6.61	-1
0	31426	6.71	-1
0	31983	6.81	-1
0	32540	6.91	-1
0	33105	7.01	-1
0	33662	7.11	-1
0	34219	7.21	-1
0	34776	7.31	-1
0	35333	7.41	-1
0	35890	7.51	-1
0	36447	7.61	-1
0	37004	7.71	-1
0	37561	7.81	-1
0	38118	7.91	-1
0	38683	8.01	-1
0	39240	8.11	-1
0	39797	8.21	-1
0	40354	8.31	-1
0	40911	8.41	-1
0	41468	8.51	-1
0	42025	8.61	-1
0	42582	8.71	-1
0	43139	8.81	-1
0	43696	8.91	-1
0	44261	9.01	-1
0	44818	9.11	-1
0	45375	9.21	-1
0	45932	9.31	-1
0	46489	9.41	-1
0	47046	9.51	-1
0	47603	9.61	-1
0	48160	9.71	-1
0	48717	9.81	-1
0	49274	9.91	-1
0	49839	10.01	-1
0	50396	10.11	-1
0	50953	10.21	-1
0	51510	10.31	-1
0	52067	10.41	-1
0	52624	10.51	-1
0	53181	10.61	-1
0	53738	10.71	-1
0	54295	10.81	-1
0	54852	10.91	-1
0	55417	11.01	-1
0	55974	11.11	-1
0	56531	11.21	-1
0	57088	11.31	-1
0	57645	11.41	-1
0	58202	11.51	-1
0	58759	11.61	-1
0	59316	11.71	-1
0	59873	11.81	-1
0	60430	11.91	-1
0	60995	12.01	-1
0	61552	12.11	-1
0	62109	12.21	-1
0	62666	12.31	-1
0	63223	12.41	-1
0	63780	12.51	-1
0	64337	12.61	-1
0	64894	12.71	-1
0	65451	12.81	-1
0	66008	12.91	-1
0	66573	13.01	-1
0	67130	13.11	-1
0	67687	13.21	-1
0	68244	13.31	-1
0	68801	13.41	-1
0	69358	13.51	-1
0	69915	13.61	-1
0	70472	13.71	-1
0	71029	13.81	-1
0	71586	13.91	-1
0	72151	14.01	-1
0	72708	14.11	-1
0	73265	14.21	-1
0	73822	14.31	-1
0	74379	14.41	-1
0	74936	14.51	-1
0	75493	14.61	-1
0	76050	14.71	-1
0	76607	14.81	-1
0	77164	14.91	-1
0	77729	15.01	-1
0	78286	15.11	-1
0	78843	15.21	-1
0	79400	15.31	-1
0	79957	15.41	-1
0	80514	15.51	-1
0	81071	15.61	-1
0	81628	15.71	-1
0	82185	15.81	-1
0	82742	15.91	-1
0	83307	16.01	-1
0	83864	16.11	-1
0	84421	16.21	-1
0	84978	16.31	-1
0	85535	16.41	-1
0	86092	16.51	-1
0	86649	16.61	-1
0	87206	16.71	-1
0	87763	16.81	-1
0	88320	16.91	-1
0	88885	17.01	-1
0	89442	17.11	-1
0	89999	17.21	-1
0	90556	17.31	-1
0	91113	17.41	-1
0	91670	17.51	-1
0	92227	17.61	-1
0	92784	17.71	-1
0	93341	17.81	-1
0	93898	17.91	-1
0	94463	18.01	-1
0	95020	18.11	-1
0	95577	18.21	-1
0	96134	18.31	-1
0	96691	18.41	-1
0	97248	18.51	-1
0	97805	18.61	-1
0	98362	18.71	-1
0	98919	18.81	-1
0	99476	18.91	-1
0	100041	19.01	-1
0	100598	19.11	-1
0	101155	19.21	-1
0	101712	19.31	-1
0	102269	19.41	-1
0	102826	19.51	-1
0	103383	19.61	-1
0	103940	19.71	-1
0	104497	19.81	-1
0	105054	19.91	-1
0	105619	20.01	-1
0	106176	20.11	-1
0	106733	20.21	-1
0	107290	20.31	-1
0	107847	20.41	-1
0	108404	20.51	-1
0	108961	20.61	-1
0	109518	20.71	-1
0	110075	20.81	-1
0	110632	20.91	-1
0	111197	21.01	-1
0	111754	21.11	-1
0	112311	21.21	-1
0	112868	21.31	-1
0	113425	21.41	-1
0	113982	21.51	-1
0	114539	21.61	-1
0	115096	21.71	-1
0	115653	21.81	-1
0	116210	21.91	-1
0	116775	22.01	-1
0	117332	22.11	-1
0	117889	22.21	-1
0	118446	22.31	-1
0	119003	22.41	-1
0	119560	22.51	-1
0	120117	22.61	-1
0	120674	22.71	-1
0	121231	22.81	-1
0	121788	22.91	-1
0	122353	23.01	-1
0	122910	23.11	-1
0	123467	23.21	-1
0	124024	23.31	-1
0	124581	23.41	-1
0	125138	23.51	-1
0	125695	23.61	-1
0	126252	23.71	-1
0	126809	23.81	-1
0	127366	23.91	-1
0	127931	24.01	-1
0	128488	24.11	-1
0	129045	24.21	-1
0	129602	24.31	-1
0	130159	24.41	-1
0	130716	24.51	-1
0	131273	24.61	-1
0	131830	24.71	-1
0	132387	24.81	-1
0	132944	24.91	-1
0	133509	25.01	-1
0	134066	25.11	-1
0	134623	25.21	-1
0	135180	25.31	-1
0	135737	25.41	-1
0	136294	25.51	-1
0	136851	25.61	-1
0	137408	25.71	-1
0	137965	25.81	-1
0	138522	25.91	-1
0	139087	26.01	-1
0	139644	26.11	-1
0	140201	26.21	-1
0	140758	26.31	-1
0	141315	26.41	-1
0	141872	26.51	-1
0	142429	26.61	-1
0	142986	26.71	-1
0	143543	26.81	-1
0	144100	26.91	-1
0	144665	27.01	-1
0	145222	27.11	-1
0	145779	27.21	-1
0	146336	27.31	-1
0	146893	27.41	-1
0	147450	27.51	-1
0	148007	27.61	-1
0	148564	27.71	-1
0	149121	27.81	-1
0	149678	27.91	-1
0	150243	28.01	-1
0	150800	28.11	-1
0	151357	28.21	-1
0	151914	28.31	-1
0	152471	28.41	-1
0	153028	28.51	-1
0	153585	28.61	-1
0	154142	28.71	-1
0	154699	28.81	-1
0	155256	28.91	-1
0	155821	29.01	-1
0	156378	29.11	-1
0	156935	29.21	-1
0	157492	29.31	-1
0	158049	29.41	-1
0	158606	29.51	-1
0	159163	29.61	-1
0	159720	29.71	-1
0	160277	29.81	-1
0	160834	29.91	-1
0	161399	30.01	-1
0	161956	30.11	-1
0	162513	30.21	-1
0	163070	30.31	-1
0	163627	30.41	-1
0	164184	30.51	-1
0	164741	30.61	-1
0	165298	30.71	-1
0	165855	30.81	-1
0	166412	30.91	-1
0	166977	31.01	-1
0	167534	31.11	-1
0	168091	31.21	-1
0	168648	31.31	-1
0	169205	31.41	-1
0	169762	31.51	-1
0	170319	31.61	-1
0	170876	31.71	-1
0	171433	31.81	-1
0	171990	31.91	-1
0	172555	32.01	-1
0	173112	32.11	-1
0	173669	32.21	-1
0	174226	32.31	-1
0	174783	32.41	-1
0	175340	32.51	-1
0	175897	32.61	-1
0	176454	32.71	-1
0	177011	32.81	-1
0	177568	32.91	-1
0	178133	33.01	-1
0	178690	33.11	-1
0	179247	33.21	-1
0	179804	33.31	-1
0	180361	33.41	-1
0	180918	33.51	-1
0	181475	33.61	-1
0	182032	33.71	-1
0	182589	33.81	-1
0	183146	33.91	-1
0	183711	34.01	-1
0	184268	34.11	-1
0	184825	34.21	-1
0	185382	34.31	-1
0	185939	34.41	-1
0	186496	34.51	-1
0	187053	34.61	-1
0	187610	34.71	-1
0	188167	34.81	-1
0	188724	34.91	-1
0	189289	35.01	-1
0	189846	35.11	-1
0	190403	35.21	-1
0	190960	35.31	-1
0	191517	35.41	-1
0	192074	35.51	-1
0	192631	35.61	-1
0	193188	35.71	-1
0	193745	35.81	-1
0	194302	35.91	-1
0	194867	36.01	-1
0	195424	36.11	-1
0	195981	36.21	-1
0	196538	36.31	-1
0	197095	36.41	-1
0	197652	36.51	-1
0	198209	36.61	-1
0	198766	36.71	-1
0	199323	36.81	-1
0	199880	36.91	-1
0	200445	37.01	-1
0	201002	37.11	-1
2	232	1.11	0
2	788	1.21	0
2	1344	1.31	0
2	1900	1.41	0
2	2456	1.51	0
2	3012	1.61	0
2	3568	1.71	0
2	4124	1.81	0
2	4680	1.91	0
2	5244	2.01	0
2	5800	2.11	0
2	6356	2.21	0
2	6912	2.31	0
2	7468	2.41	0
2	8024	2.51	0
2	8580	2.61	0
2	9136	2.71	0
2	9692	2.81	0
2	10248	2.91	0
2	10812	3.01	0
2	11368	3.11	0
2	11924	3.21	0
2	12480	3.31	0
2	13036	3.41	0
2	13592	3.51	0
2	14148	3.61	0
2	14704	3.71	0
2	15260	3.81	0
2	15816	3.91	0
2	16380	4.01	0
2	16936	4.11	0
2	17492	4.21	0
2	18048	4.31	0
2	18604	4.41	0
2	19160	4.51	0
2	19716	4.61	0
2	20272	4.71	0
2	20828	4.81	0
2	21384	4.91	0
2	21949	5.01	0
2	22506	5.11	0
2	23063	5.21	0
2	23620	5.31	0
2	24177	5.41	0
2	24734	5.51	0
2	25291	5.61	0
2	25848	5.71	0
2	26405	5.81	0
2	26962	5.91	0
2	27527	6.01	0
2	28084	6.11	0
2	28641	6.21	0
2	29198	6.31	0
2	29755	6.41	0
2	30312	6.51	0
2	30869	6.61	0
2	31426	6.71	0
2	31983	6.81	0
2	32540	6.91	0
2	33105	7.01	0
2	33662	7.11	0
2	34219	7.21	0
2	34776	7.31	0
2	35333	7.41	0
2	35890	7.51	0
2	36447	7.61	0
2	37004	7.71	0
2	37561	7.81	0
2	38118	7.91	0
2	38683	8.01	0
2	39240	8.11	0
2	39797	8.21	0
2	40354	8.31	0
2	40911	8.41	0
2	41468	8.51	0
2	42025	8.61	0
2	42582	8.71	0
2	43139	8.81	0
2	43696	8.91	0
2	44261	9.01	0
2	44818	9.11	0
2	45375	9.21	0
2	45932	9.31	0
2	46489	9.41	0
2	47046	9.51	0
2	47603	9.61	0
2	48160	9.71	0
2	48717	9.81	0
2	49274	9.91	0
2	49839	10.01	0
2	50396	10.11	0
2	50953	10.21	0
2	51510	10.31	0
2	52067	10.41	0
2	52624	10.51	0
2	53181	10.61	0
2	53738	10.71	0
2	54295	10.81	0
2	54852	10.91	0
2	55417	11.01	0
2	55974	11.11	0
2	56531	11.21	0
2	57088	11.31	0
2	57645	11.41	0
2	58202	11.51	0
2	58759	11.61	0
2	59316	11.71	0
2	59873	11.81	0
2	60430	11.91	0
2	60995	12.01	0
2	61552	12.11	0
2	62109	12.21	0
2	62666	12.31	0
2	63223	12.41	0
2	63780	12.51	0
2	64337	12.61	0
2	64894	12.71	0
2	65451	12.81	0
2	66008	12.91	0
2	66573	13.01	0
2	67130	13.11	0
2	67687	13.21	0
2	68244	13.31	0
2	68801	13.41	0
2	69358	13.51	0
2	69915	13.61	0
2	70472	13.71	0
2	71029	13.81	0
2	71586	13.91	0
2	72151	14.01	0
2	72708	14.11	0
2	73265	14.21	0
2	73822	14.31	0
2	74379	14.41	0
2	74936	14.51	0
2	75493	14.61	0
2	76050	14.71	0
2	76607	14.81	0
2	77164	14.91	0
2	77729	15.01	0
2	78286	15.11	0
2	78843	15.21	0
2	79400	15.31	0
2	79957	15.41	0
2	80514	15.51	0
2	81071	15.61	0
2	81628	15.71	0
2	82185	15.81	0
2	82742	15.91	0
2	83307	16.01	0
2	83864	16.11	0
2	84421	16.21	0
2	84978	16.31	0
2	85535	16.41	0
2	86092	16.51	0
2	86649	16.61	0
2	87206	16.71	0
2	87763	16.81	0
2	88320	16.91	0
2	88885	17.01	0
2	89442	17.11	0
2	89999	17.21	0
2	90556	17.31	0
2	91113	17.41	0
2	91670	17.51	0
2	92227	17.61	0
2	92784	17.71	0
2	93341	17.81	0
2	93898	17.91	0
2	94463	18.01	0
2	95020	18.11	0
2	95577	18.21	0
2	96134	18.31	0
2	96691	18.41	0
2	97248	18.51	0
2	97805	18.61	0
2	98362	18.71	0
2	98919	18.81	0
2	99476	18.91	0
2	100041	19.01	0
2	100598	19.11	0
2	101155	19.21	0
2	101712	19.31	0
2	102269	19.41	0
2	102826	19.51	0
2	103383	19.61	0
2	103940	19.71	0
2	104497	19.81	0
2	105054	19.91	0
2	105619	20.01	0
2	106176	20.11	0
2	106733	20.21	0
2	107290	20.31	0
2	107847	20.41	0
2	108404	20.51	0
2	108961	20.61	0
2	109518	20.71	0
2	110075	20.81	0
2	110632	20.91	0
2	111197	21.01	0
2	111754	21.11	0
2	112311	21.21	0
2	112868	21.31	0
2	113425	21.41	0
2	113982	21.51	0
2	114539	21.61	0
2	115096	21.71	0
2	115653	21.81	0
2	116210	21.91	0
2	116775	22.01	0
2	117332	22.11	0
2	117889	22.21	0
2	118446	22.31	0
2	119003	22.41	0
2	119560	22.51	0
2	120117	22.61	0
2	120674	22.71	0
2	121231	22.81	0
2	121788	22.91	0
2	122353	23.01	0
2	122910	23.11	0
2	123467	23.21	0
2	124024	23.31	0
2	124581	23.41	0
2	125138	23.51	0
2	125695	23.61	0
2	126252	23.71	0
2	126809	23.81	0
2	127366	23.91	0
2	127931	24.01	0
2	128488	24.11	0
2	129045	24.21	0
2	129602	24.31	0
2	130159	24.41	0
2	130716	24.51	0
2	131273	24.61	0
2	131830	24.71	0
2	132387	24.81	0
2	132944	24.91	0
2	133509	25.01	0
2	134066	25.11	0
2	134623	25.21	0
2	135180	25.31	0
2	135737	25.41	0
2	136294	25.51	0
2	136851	25.61	0
2	137408	25.71	0
2	137965	25.81	0
2	138522	25.91	0
2	139087	26.01	0
2	139644	26.11	0
2	140201	26.21	0
2	140758	26.31	0
2	141315	26.41	0
2	141872	26.51	0
2	142429	26.61	0
2	142986	26.71	0
2	143543	26.81	0
2	144100	26.91	0
2	144665	27.01	0
2	145222	27.11	0
2	145779	27.21	0
2	146336	27.31	0
2	146893	27.41	0
2	147450	27.51	0
2	148007	27.61	0
2	148564	27.71	0
2	149121	27.81	0
2	149678	27.91	0
2	150243	28.01	0
2	150800	28.11	0
2	151357	28.21	0
2	151914	28.31	0
2	152471	28.41	0
2	153028	28.51	0
2	153585	28.61	0
2	154142	28.71	0
2	154699	28.81	0
2	155256	28.91	0
2	155821	29.01	0
2	156378	29.11	0
2	156935	29.21	0
2	157492	29.31	0
2	158049	29.41	0
2	158606	29.51	0
2	159163	29.61	0
2	159720	29.71	0
2	160277	29.81	0
2	160834	29.91	0
2	161399	30.01	0
2	161956	30.11	0
2	162513	30.21	0
2	163070	30.31	0
2	163627	30.41	0
2	164184	30.51	0
2	164741	30.61	0
2	165298	30.71	0
2	165855	30.81	0
2	166412	30.91	0
2	166977	31.01	0
2	167534	31.11	0
2	168091	31.21	0
2	168648	31.31	0
2	169205	31.41	0
2	169762	31.51	0
2	170319	31.61	0
2	170876	31.71	0
2	171433	31.81	0
2	171990	31.91	0
2	172555	32.01	0
2	173112	32.11	0
2	173669	32.21	0
2	174226	32.31	0
2	174783	32.41	0
2	175340	32.51	0
2	175897	32.61	0
2	176454	32.71	0
2	177011	32.81	0
2	177568	32.91	0
2	178133	33.01	0
2	178690	33.11	0
2	179247	33.21	0
2	179804	33.31	0
2	180361	33.41	0
2	180918	33.51	0
2	181475	33.61	0
2	182032	33.71	0
2	182589	33.81	0
2	183146	33.91	0
2	183711	34.01	0
2	184268	34.11	0
2	184825	34.21	0
2	185382	34.31	0
2	185939	34.41	0
2	186496	34.51	0
2	187053	34.61	0
2	187610	34.71	0
2	188167	34.81	0
2	188724	34.91	0
2	189289	35.01	0
2	189846	35.11	0
2	190403	35.21	0
2	190960	35.31	0
2	191517	35.41	0
2	192074	35.51	0
2	192631	35.61	0
2	193188	35.71	0
2	193745	35.81	0
2	194302	35.91	0
2	194867	36.01	0
2	195424	36.11	0
2	195981	36.21	0
2	196538	36.31	0
2	197095	36.41	0
2	197652	36.51	0
2	198209	36.61	0
2	198766	36.71	0
2	199323	36.81	0
2	199880	36.91	0
2	200445	37.01	0
2	201002	37.11	0
10	5168	2	0
10	10736	3	0
10	16304	4	0
10	21873	5	0
10	27450	6	0
10	33028	7	0
10	38606	8	0
10	44184	9	0
10	49762	10	0
10	55340	11	0
10	60918	12	0
10	66496	13	0
10	72074	14	0
10	77652	15	0
10	83230	16	0
10	88808	17	0
10	94386	18	0
10	99964	19	0
10	105542	20	0
10	111120	21	0
10	116698	22	0
10	122276	23	0
10	127854	24	0
10	133432	25	0
10	139010	26	0
10	144588	27	0
10	150166	28	0
10	155744	29	0
10	161322	30	0
10	166900	31	0
10	172478	32	0
10	178056	33	0
10	183634	34	0
10	189212	35	0
10	194790	36	0
10	200368	37	0
9	5168	2	0.023297
9	10736	3	0.02625
9	16304	4	0.02625
9	21873	5	0.02625
9	27450	6	0.02625
9	33028	7	0.02625
9	38606	8	0.02625
9	44184	9	0.02625
9	49762	10	0.02625
9	55340	11	0.02625
9	60918	12	0.02625
9	66496	13	0.02625
9	72074	14	0.02625
9	77652	15	0.02625
9	83230	16	0.02625
9	88808	17	0.02625
9	94386	18	0.02625
9	99964	19	0.02625
9	105542	20	0.02625
9	111120	21	0.02625
9	116698	22	0.02625
9	122276	23	0.02625
9	127854	24	0.02625
9	133432	25	0.02625
9	139010	26	0.02625
9	144588	27	0.02625
9	150166	28	0.02625
9	155744	29	0.02625
9	161322	30	0.02625
9	166900	31	0.02625
9	172478	32	0.02625
9	178056	33	0.02625
9	183634	34	0.02625
9	189212	35	0.02625
9	194790	36	0.02625
9	200368	37	0.02625
8	5168	2	0
8	10736	3	0
8	16304	4	0
8	21873	5	0
8	27450	6	0
8	33028	7	0
8	38606	8	0
8	44184	9	0
8	49762	10	0
8	55340	11	0
8	60918	12	0
8	66496	13	0
8	72074	14	0
8	77652	15	0
8	83230	16	0
8	88808	17	0
8	94386	18	0
8	99964	19	0
8	105542	20	0
8	111120	21	0
8	116698	22	0
8	122276	23	0
8	127854	24	0
8	133432	25	0
8	139010	26	0
8	144588	27	0
8	150166	28	0
8	155744	29	0
8	161322	30	0
8	166900	31	0
8	172478	32	0
8	178056	33	0
8	183634	34	0
8	189212	35	0
8	194790	36	0
8	200368	37	0
51	234	1.11	0
51	790	1.21	0
51	1346	1.31	6.7365167794264e-07
51	1902	1.41	6.4653995998754e-07
51	2458	1.51	6.1073254492783e-07
51	3014	1.61	5.6849360582589e-07
51	3570	1.71	5.2179420336529e-07
51	4126	1.81	4.7232962437249e-07
51	4682	1.91	4.2153870062123e-07
[...]
35	124827	23.462219815502	0.099999248653
35	125384	23.562219064041	0.099999248539
35	125941	23.662218312461	0.09999924842
35	126498	23.76221756075	0.099999248289
35	127055	23.8622168089	0.09999924815
35	127612	23.962216056908	0.099999248008
35	128177	24.062215304765	0.099999247857
35	128734	24.162214552466	0.099999247701
35	129291	24.262213800004	0.099999247538
35	129848	24.362213047376	0.099999247372
35	130405	24.462212294574	0.099999247198
35	130962	24.562211541599	0.099999247025
35	131519	24.662210788453	0.099999246854
35	132076	24.762210035143	0.09999924669
35	132633	24.862222281683	0.10001224654
35	133190	24.962221528095	0.099999246412
35	133755	25.062220774403	0.099999246308
35	134312	25.16222002064	0.099999246237
35	134869	25.262219266833	0.099999246193
35	135426	25.362218513014	0.099999246181
35	135983	25.46221775921	0.099999246196
35	136540	25.562217005444	0.099999246234
35	137097	25.662216251737	0.099999246293
35	137654	25.762215498103	0.099999246366
35	138211	25.862214744559	0.099999246456
35	138768	25.962213991116	0.099999246557
35	139333	26.062213237782	0.099999246666
35	139890	26.16221248457	0.099999246788
35	140447	26.262211731486	0.099999246916
35	141004	26.362210978539	0.099999247053
35	141561	26.462210225734	0.099999247195
35	142118	26.562209473077	0.099999247343
35	142675	26.662221720576	0.100012247499
35	143232	26.762220968232	0.099999247656
35	143789	26.862220216056	0.099999247824
35	144346	26.962219464051	0.099999247995
35	144911	27.062218712219	0.099999248168
35	145468	27.162217960558	0.099999248339
35	146025	27.262217209059	0.099999248501
35	146582	27.362216457708	0.099999248649
35	147139	27.462215706483	0.099999248775
35	147696	27.562214955359	0.099999248876
35	148253	27.662214204308	0.099999248949
35	148810	27.762213453297	0.099999248989
35	149367	27.862212702298	0.099999249001
35	149924	27.962211951283	0.099999248985
35	150489	28.062211200228	0.099999248945
35	151046	28.162210449116	0.099999248888
35	151603	28.262209697925	0.099999248809
35	152160	28.362221946645	0.10001224872
35	152717	28.462221195262	0.099999248617
35	153274	28.562220443768	0.099999248506
35	153831	28.662219692153	0.099999248385
35	154388	28.762218940407	0.099999248254
35	154945	28.862218188523	0.099999248116
35	155502	28.962217436496	0.099999247973
35	156067	29.06221668432	0.099999247824
35	156624	29.162215931989	0.099999247669
35	157181	29.262215179495	0.099999247506
35	157738	29.362214426834	0.099999247339
35	158295	29.462213674003	0.099999247169
35	158852	29.562212920998	0.099999246995
35	159409	29.662212167822	0.099999246824
35	159966	29.762211414479	0.099999246657
35	160523	29.86221066099	0.099999246511
35	161080	29.962209907372	0.099999246382
35	161645	30.062222153652	0.10001224628
35	162202	30.162221399859	0.099999246207
35	162759	30.262220646025	0.099999246166
35	163316	30.362219892178	0.099999246153
35	163873	30.462219138347	0.099999246169
35	164430	30.562218384555	0.099999246208
35	164987	30.662217630821	0.099999246266
35	165544	30.76221687716	0.099999246339
35	166101	30.86221612359	0.09999924643
35	166658	30.96221537012	0.09999924653
35	167223	31.062214616764	0.099999246644
35	167780	31.162213863527	0.099999246763
35	168337	31.262213110418	0.099999246891
35	168894	31.362212357446	0.099999247028
35	169451	31.462211604618	0.099999247172
35	170008	31.562210851938	0.09999924732
35	170565	31.662210099413	0.099999247475
35	171122	31.76222234705	0.100012247637
35	171679	31.862221594852	0.099999247802
35	172236	31.962220842825	0.099999247973
35	172801	32.062220090971	0.099999248146
35	173358	32.162219339281	0.09999924831
35	173915	32.262218587744	0.099999248463
35	174472	32.362217836325	0.099999248581
35	175029	32.462217084977	0.099999248652
35	175586	32.562216333635	0.099999248658
35	176143	32.662215582217	0.099999248582
35	176700	32.762214830613	0.099999248396
35	177257	32.862214078703	0.09999924809
35	177814	32.962213326352	0.099999247649
35	178379	33.062212573411	0.099999247059
35	178936	33.162211819728	0.099999246317
35	179493	33.262211065135	0.099999245407
35	180050	33.362210309467	0.099999244332
35	180607	33.462209552549	0.099999243082
35	181164	33.562221794202	0.100012241653
35	181721	33.662221034244	0.099999240042
35	182278	33.762220272491	0.099999238247
35	182835	33.862219508759	0.099999236268
35	183392	33.962218742861	0.099999234102
35	183957	34.062217974606	0.099999231745
35	184514	34.162217203805	0.099999229199
35	185071	34.262216430271	0.099999226466
35	185628	34.362215653811	0.09999922354
35	186185	34.462214874235	0.099999220424
35	186742	34.562214091354	0.099999217119
35	187299	34.662213304986	0.099999213632
35	187856	34.762212514963	0.099999209977
35	188413	34.862211721126	0.099999206163
35	188970	34.962210923335	0.099999202209
35	189535	35.06221012147	0.099999198135
35	190092	35.162222315427	0.100012193957
35	190649	35.262221505127	0.0999991897
35	191206	35.3622206905	0.099999185373
35	191763	35.4622198715	0.099999181
35	192320	35.562219048085	0.099999176585
35	192877	35.662218220227	0.099999172142
35	193434	35.762217387906	0.099999167679
35	193991	35.862216551108	0.099999163202
35	194548	35.962215709825	0.099999158717
35	195113	36.062214864052	0.099999154227
35	195670	36.162214013794	0.099999149742
35	196227	36.262213159052	0.099999145258
35	196784	36.362212299837	0.099999140785
35	197341	36.46221143616	0.099999136323
35	197898	36.562210568034	0.099999131874
35	198455	36.662209695476	0.099999127442
35	199012	36.762221818505	0.100012123029
35	199569	36.862220937143	0.099999118638
35	200126	36.962220051413	0.09999911427
35	200691	37.062219161338	0.099999109925
35	201248	37.162218266935	0.099999105597
36	1034	1.262217757883	0.09999924753
36	1590	1.362217005413	0.09999924753
36	2146	1.462216252943	0.09999924753
36	2702	1.562215500473	0.09999924753
36	3258	1.662214748003	0.09999924753
36	3814	1.762213995533	0.09999924753
36	4370	1.862213243063	0.09999924753
36	4926	1.962212490593	0.09999924753
36	5490	2.062211738123	0.09999924753
36	6046	2.162210985653	0.09999924753
36	6602	2.262210233183	0.09999924753
36	7158	2.362209480713	0.09999924753
36	7714	2.462221728243	0.10001224753
36	8270	2.562220975773	0.09999924753
36	8826	2.662220223303	0.09999924753
36	9382	2.762219470833	0.09999924753
36	9938	2.862218718363	0.09999924753
36	10494	2.962217965893	0.09999924753
36	11058	3.062217213423	0.09999924753
36	11614	3.162216460953	0.09999924753
36	12170	3.262215708483	0.09999924753
36	12726	3.362214956013	0.09999924753
36	13282	3.462214203543	0.09999924753
36	13838	3.562213451073	0.09999924753
36	14394	3.662212698603	0.09999924753
36	14950	3.762211946133	0.09999924753
36	15506	3.862211193663	0.09999924753
36	16062	3.962210441193	0.09999924753
36	16626	4.062209688723	0.09999924753
36	17182	4.162221936253	0.10001224753
36	17738	4.262221183783	0.09999924753
36	18294	4.362220431313	0.09999924753
36	18850	4.462219678843	0.09999924753
36	19406	4.562218926373	0.09999924753
36	19962	4.662218173903	0.09999924753
36	20518	4.762217421433	0.09999924753
36	21074	4.862216668963	0.09999924753
36	21630	4.962215916493	0.09999924753
36	22195	5.062215164023	0.09999924753
36	22752	5.162214411554	0.099999247531
36	23309	5.262213659089	0.099999247535
36	23866	5.362212906632	0.099999247543
36	24423	5.462212154195	0.099999247563
36	24980	5.562211401796	0.099999247601
36	25537	5.662210649453	0.099999247657
36	26094	5.762209897189	0.099999247736
36	26651	5.862222145021	0.100012247832
36	27208	5.962221392964	0.099999247943
36	27773	6.062220641035	0.099999248071
36	28330	6.162219889244	0.099999248209
36	28887	6.262219137599	0.099999248355
36	29444	6.362218386112	0.099999248513
36	30001	6.462217634789	0.099999248677
36	30558	6.56221688364	0.099999248851
36	31115	6.662216132666	0.099999249026
36	31672	6.762215381872	0.099999249206
36	32229	6.862214631254	0.099999249382
36	32786	6.962213880812	0.099999249558
36	33351	7.06221313053	0.099999249718
36	33908	7.162212380392	0.099999249862
36	34465	7.262211630379	0.099999249987
36	35022	7.362210880464	0.099999250085
36	35579	7.462210130621	0.099999250157
36	36136	7.562222380819	0.100012250198
36	36693	7.662221631032	0.099999250213
36	37250	7.762220881232	0.0999992502
36	37807	7.862220131395	0.099999250163
36	38364	7.962219381506	0.099999250111
36	38929	8.062218631545	0.099999250039
36	39486	8.162217881498	0.099999249953
36	40043	8.262217131357	0.099999249859
36	40600	8.36221638111	0.099999249753
36	41157	8.462215630747	0.099999249637
36	41714	8.562214880257	0.09999924951
36	42271	8.662214129637	0.09999924938
36	42828	8.762213378876	0.099999249239
36	43385	8.862212627972	0.099999249096
36	43942	8.962211876916	0.099999248944
36	44507	9.062211125705	0.099999248789
36	45064	9.16221037433	0.099999248625
36	45621	9.262209622786	0.099999248456
36	46178	9.362221871073	0.100012248287
36	46735	9.462221119181	0.099999248108
36	47292	9.562220367109	0.099999247928
36	47849	9.662219614855	0.099999247746
36	48406	9.762218862421	0.099999247566
36	48963	9.862218109818	0.099999247397
36	49520	9.962217357062	0.099999247244
36	50085	10.062216604179	0.099999247117
36	50642	10.162215851194	0.099999247015
36	51199	10.262215098139	0.099999246945
36	51756	10.362214345045	0.099999246906
36	52313	10.462213591942	0.099999246897
36	52870	10.562212838857	0.099999246915
36	53427	10.662212085811	0.099999246954
36	53984	10.762211332824	0.099999247013
36	54541	10.86221057991	0.099999247086
36	55098	10.962209827083	0.099999247173
36	55663	11.062222074355	0.100012247272
36	56220	11.162221321736	0.099999247381
36	56777	11.262220569234	0.099999247498
36	57334	11.36221981686	0.099999247626
36	57891	11.462219064618	0.099999247758
36	58448	11.562218312517	0.099999247899
36	59005	11.662217560562	0.099999248045
36	59562	11.76221680876	0.099999248198
36	60119	11.862216057116	0.099999248356
36	60676	11.962215305634	0.099999248518
36	61241	12.062214554316	0.099999248682
36	61798	12.162213803159	0.099999248843
36	62355	12.262213052153	0.099999248994
36	62912	12.362212301281	0.099999249128
36	63469	12.462211550525	0.099999249244
36	64026	12.562210799855	0.09999924933
36	64583	12.662210049242	0.099999249387
36	65140	12.762222298657	0.100012249415
36	65697	12.862221548071	0.099999249414
36	66254	12.962220797456	0.099999249385
36	66819	13.062220046791	0.099999249335
36	67376	13.162219296056	0.099999249265
36	67933	13.262218545238	0.099999249182
36	68490	13.362217794322	0.099999249084
36	69047	13.462217043295	0.099999248973
36	69604	13.562216292148	0.099999248853
36	70161	13.662215540875	0.099999248727
36	70718	13.762214789465	0.09999924859
36	71275	13.862214037911	0.099999248446
36	71832	13.962213286207	0.099999248296
36	72397	14.062212534348	0.099999248141
36	72954	14.162211782329	0.099999247981
36	73511	14.262211030142	0.099999247813
36	74068	14.362210277783	0.099999247641
36	74625	14.462209525248	0.099999247465
36	75182	14.562221772535	0.100012247287
36	75739	14.662221019645	0.09999924711
36	76296	14.762220266587	0.099999246942
36	76853	14.862219513373	0.099999246786
36	77410	14.962218760024	0.099999246651
36	77975	15.062218006566	0.099999246542
36	78532	15.162217253029	0.099999246463
36	79089	15.262216499446	0.099999246417
36	79646	15.362215745843	0.099999246397
36	80203	15.462214992248	0.099999246405
36	80760	15.562214238687	0.099999246439
36	81317	15.66221348518	0.099999246493
36	81874	15.762212731743	0.099999246563
36	82431	15.86221197839	0.099999246647
36	82988	15.962211225134	0.099999246744
36	83553	16.062210471985	0.099999246851
36	84110	16.162209718953	0.099999246968
36	84667	16.262221966047	0.100012247094
36	85224	16.362221213274	0.099999247227
36	85781	16.46222046064	0.099999247366
36	86338	16.562219708154	0.099999247514
36	86895	16.662218955819	0.099999247665
36	87452	16.762218203643	0.099999247824
36	88009	16.862217451628	0.099999247985
36	88566	16.962216699781	0.099999248153
36	89131	17.062215948105	0.099999248324
36	89688	17.162215196596	0.099999248491
36	90245	17.262214445247	0.099999248651
36	90802	17.362213694043	0.099999248796
36	91359	17.462212942962	0.099999248919
36	91916	17.56221219198	0.099999249018
36	92473	17.662211441066	0.099999249086
36	93030	17.762210690191	0.099999249125
36	93587	17.862209939323	0.099999249132
36	94144	17.962222188437	0.100012249114
36	94709	18.062221437509	0.099999249072
36	95266	18.162220686519	0.09999924901
36	95823	18.262219935451	0.099999248932
36	96380	18.36221918429	0.099999248839
36	96937	18.462218433024	0.099999248734
36	97494	18.562217681645	0.099999248621
36	98051	18.662216930141	0.099999248496
36	98608	18.762216178507	0.099999248366
36	99165	18.862215426734	0.099999248227
36	99722	18.962214674815	0.099999248081
36	100287	19.062213922744	0.099999247929
36	100844	19.162213170517	0.099999247773
36	101401	19.262212418127	0.09999924761
36	101958	19.362211665568	0.099999247441
36	102515	19.462210912837	0.099999247269
36	103072	19.562210159931	0.099999247094
36	103629	19.66222240685	0.100012246919
36	104186	19.762221653605	0.099999246755
36	104743	19.86222090021	0.099999246605
36	105300	19.962220146685	0.099999246475
36	105865	20.062219393055	0.09999924637
36	106422	20.16221863935	0.099999246295
36	106979	20.262217885603	0.099999246253
36	107536	20.362217131842	0.099999246239
36	108093	20.462216378094	0.099999246252
36	108650	20.562215624387	0.099999246293
36	109207	20.662214870733	0.099999246346
36	109764	20.762214117153	0.09999924642
36	110321	20.862213363663	0.09999924651
36	110878	20.962212610273	0.09999924661
36	111443	21.062211856992	0.099999246719
36	112000	21.162211103829	0.099999246837
36	112557	21.262210350795	0.099999246966
36	113114	21.362209597896	0.099999247101
36	113671	21.462221845141	0.100012247245
36	114228	21.562221092532	0.099999247391
36	114785	21.662220340078	0.099999247546
36	115342	21.762219587785	0.099999247707
36	115899	21.862218835654	0.099999247869
36	116456	21.962218083695	0.099999248041
36	117021	22.062217331907	0.099999248212
36	117578	22.162216580288	0.099999248381
36	118135	22.262215828832	0.099999248544
36	118692	22.362215077523	0.099999248691
36	119249	22.46221432634	0.099999248817
36	119806	22.562213575258	0.099999248918
36	120363	22.662212824247	0.099999248989
36	120920	22.762212073277	0.09999924903
36	121477	22.862211322319	0.099999249042
36	122034	22.962210571342	0.099999249023
36	122599	23.062209820324	0.099999248982
36	123156	23.162222069245	0.100012248921
36	123713	23.262221318092	0.099999248847
36	124270	23.362220566849	0.099999248757
36	124827	23.462219815502	0.099999248653
36	125384	23.562219064041	0.099999248539
36	125941	23.662218312461	0.09999924842
36	126498	23.76221756075	0.099999248289
36	127055	23.8622168089	0.09999924815
36	127612	23.962216056908	0.099999248008
36	128177	24.062215304765	0.099999247857
36	128734	24.162214552466	0.099999247701
36	129291	24.262213800004	0.099999247538
36	129848	24.362213047376	0.099999247372
36	130405	24.462212294574	0.099999247198
36	130962	24.562211541599	0.099999247025
36	131519	24.662210788453	0.099999246854
36	132076	24.762210035143	0.09999924669
36	132633	24.862222281683	0.10001224654
36	133190	24.962221528095	0.099999246412
36	133755	25.062220774403	0.099999246308
36	134312	25.16222002064	0.099999246237
36	134869	25.262219266833	0.099999246193
36	135426	25.362218513014	0.099999246181
36	135983	25.46221775921	0.099999246196
36	136540	25.562217005444	0.099999246234
36	137097	25.662216251737	0.099999246293
36	137654	25.762215498103	0.099999246366
36	138211	25.862214744559	0.099999246456
36	138768	25.962213991116	0.099999246557
36	139333	26.062213237782	0.099999246666
36	139890	26.16221248457	0.099999246788
36	140447	26.262211731486	0.099999246916
36	141004	26.362210978539	0.099999247053
36	141561	26.462210225734	0.099999247195
36	142118	26.562209473077	0.099999247343
36	142675	26.662221720576	0.100012247499
36	143232	26.762220968232	0.099999247656
36	143789	26.862220216056	0.099999247824
36	144346	26.962219464051	0.099999247995
36	144911	27.062218712219	0.099999248168
36	145468	27.162217960558	0.099999248339
36	146025	27.262217209059	0.099999248501
36	146582	27.362216457708	0.099999248649
36	147139	27.462215706483	0.099999248775
36	147696	27.562214955359	0.099999248876
36	148253	27.662214204308	0.099999248949
36	148810	27.762213453297	0.099999248989
36	149367	27.862212702298	0.099999249001
36	149924	27.962211951283	0.099999248985
36	150489	28.062211200228	0.099999248945
36	151046	28.162210449116	0.099999248888
36	151603	28.262209697925	0.099999248809
36	152160	28.362221946645	0.10001224872
36	152717	28.462221195262	0.099999248617
36	153274	28.562220443768	0.099999248506
36	153831	28.662219692153	0.099999248385
36	154388	28.762218940407	0.099999248254
36	154945	28.862218188523	0.099999248116
36	155502	28.962217436496	0.099999247973
36	156067	29.06221668432	0.099999247824
36	156624	29.162215931989	0.099999247669
36	157181	29.262215179495	0.099999247506
36	157738	29.362214426834	0.099999247339
36	158295	29.462213674003	0.099999247169
36	158852	29.562212920998	0.099999246995
36	159409	29.662212167822	0.099999246824
36	159966	29.762211414479	0.099999246657
36	160523	29.86221066099	0.099999246511
36	161080	29.962209907372	0.099999246382
36	161645	30.062222153652	0.10001224628
36	162202	30.162221399859	0.099999246207
36	162759	30.262220646025	0.099999246166
36	163316	30.362219892178	0.099999246153
36	163873	30.462219138347	0.099999246169
36	164430	30.562218384555	0.099999246208
36	164987	30.662217630821	0.099999246266
36	165544	30.76221687716	0.099999246339
36	166101	30.86221612359	0.09999924643
36	166658	30.96221537012	0.09999924653
36	167223	31.062214616764	0.099999246644
36	167780	31.162213863527	0.099999246763
36	168337	31.262213110418	0.099999246891
36	168894	31.362212357446	0.099999247028
36	169451	31.462211604618	0.099999247172
36	170008	31.562210851938	0.09999924732
36	170565	31.662210099413	0.099999247475
36	171122	31.76222234705	0.100012247637
36	171679	31.862221594852	0.099999247802
36	172236	31.962220842825	0.099999247973
36	172801	32.062220090971	0.099999248146
36	173358	32.162219339281	0.09999924831
36	173915	32.262218587744	0.099999248463
36	174472	32.362217836325	0.099999248581
36	175029	32.462217084977	0.099999248652
36	175586	32.562216333635	0.099999248658
36	176143	32.662215582217	0.099999248582
36	176700	32.762214830613	0.099999248396
36	177257	32.862214078703	0.09999924809
36	177814	32.962213326352	0.099999247649
36	178379	33.062212573411	0.099999247059
36	178936	33.162211819728	0.099999246317
36	179493	33.262211065135	0.099999245407
36	180050	33.362210309467	0.099999244332
36	180607	33.462209552549	0.099999243082
36	181164	33.562221794202	0.100012241653
36	181721	33.662221034244	0.099999240042
36	182278	33.762220272491	0.099999238247
36	182835	33.862219508759	0.099999236268
36	183392	33.962218742861	0.099999234102
36	183957	34.062217974606	0.099999231745
36	184514	34.162217203805	0.099999229199
36	185071	34.262216430271	0.099999226466
36	185628	34.362215653811	0.09999922354
36	186185	34.462214874235	0.099999220424
36	186742	34.562214091354	0.099999217119
36	187299	34.662213304986	0.099999213632
36	187856	34.762212514963	0.099999209977
36	188413	34.862211721126	0.099999206163
36	188970	34.962210923335	0.099999202209
36	189535	35.06221012147	0.099999198135
36	190092	35.162222315427	0.100012193957
36	190649	35.262221505127	0.0999991897
36	191206	35.3622206905	0.099999185373
36	191763	35.4622198715	0.099999181
36	192320	35.562219048085	0.099999176585
36	192877	35.662218220227	0.099999172142
36	193434	35.762217387906	0.099999167679
36	193991	35.862216551108	0.099999163202
36	194548	35.962215709825	0.099999158717
36	195113	36.062214864052	0.099999154227
36	195670	36.162214013794	0.099999149742
36	196227	36.262213159052	0.099999145258
36	196784	36.362212299837	0.099999140785
36	197341	36.46221143616	0.099999136323
36	197898	36.562210568034	0.099999131874
36	198455	36.662209695476	0.099999127442
36	199012	36.762221818505	0.100012123029
36	199569	36.862220937143	0.099999118638
36	200126	36.962220051413	0.09999911427
36	200691	37.062219161338	0.099999109925
36	201248	37.162218266935	0.099999105597
