file 1685163 1501595826                                         
version 2
run SinusoidalJammingDetail-26-20170801-15:56:36-85599
attr CACCSpacing 5
attr attackAcc -30
attr attackPos 7
attr attackSpeed 150
attr attackStart 32.5
attr attacker 1
attr beaconInterval 0.1
attr configname SinusoidalJammingDetail
attr controller 1
attr datetime 20170801-15:56:36
attr experiment SinusoidalJammingDetail
attr fakeAcc "(1 == 4)"
attr fakePos "(1 == 2)"
attr fakeSpeed "(1 == 3)"
attr inifile omnetpp_26.ini
attr iterationvars "$leaderSpeed=50, $controller=1, $CACCSpacing=5, $sController=\"CACC\", $attacker=1, $attackStart=32.5, $attackSpeed=150, $attackPos=7, $attackAcc=-30, $0=5, $1=0, $nCars=8, $platoonSize=8, $nLanes=1, $beaconInterval=0.1, $priority=2, $packetSize=200, $ploegH=0.5, $leaderHeadway=1.2, $fakeSpeed=(1 == 3), $fakeAcc=(1 == 4), $fakePos=(1 == 2)"
attr iterationvarsf leaderSpeed=50,controller=1,CACCSpacing=5,sController=CACC,attacker=1,attackStart=32.5,attackSpeed=150,attackPos=7,attackAcc=-30,5,0,nCars=8,platoonSize=8,nLanes=1,beaconInterval=0.1,priority=2,packetSize=200,ploegH=0.5,leaderHeadway=1.2,fakeSpeed=(1_==_3),fakeAcc=(1_==_4),fakePos=(1_==_2)-
attr leaderHeadway 1.2
attr leaderSpeed 50
attr measurement "$leaderSpeed=50, $controller=1, $CACCSpacing=5, $sController=\"CACC\", $attacker=1, $attackStart=32.5, $attackSpeed=150, $attackPos=7, $attackAcc=-30, $0=5, $1=0, $nCars=8, $platoonSize=8, $nLanes=1, $beaconInterval=0.1, $priority=2, $packetSize=200, $ploegH=0.5, $leaderHeadway=1.2, $fakeSpeed=(1 == 3), $fakeAcc=(1 == 4), $fakePos=(1 == 2)"
attr nCars 8
attr nLanes 1
attr network scenario
attr packetSize 200
attr platoonSize 8
attr ploegH 0.5
attr priority 2
attr processid 85599
attr repetition 1
attr replication #1
attr resultdir results
attr runnumber 26
attr sController "\"CACC\""
attr seedset 1
param **.coreDebug false
param **.debug false
param **.headway 0.1s
param **.numberOfCars 8
param **.numberOfCarsPerPlatoon 8
param **.numberOfLanes 1
param **.numericController 1
param **.traffic.nCars 8
param **.traffic.nLanes 1
param **.traffic.platoonInsertDistance 5m
param **.traffic.platoonInsertHeadway 0s
param **.traffic.platoonInsertSpeed 50kmph
param **.traffic.platoonInsertTime "1 s"
param **.traffic.platoonLeaderHeadway 1.2s
param **.traffic.platoonSize 8
param **.traffic.platooningVType "\"vtypeauto\""
param **.traffic_type "\"PlatoonsTrafficManager\""
param *.**.nic.mac1609_4.bitrate 6Mbps
param *.**.nic.mac1609_4.txPower 100mW
param *.**.nic.mac1609_4.useServiceChannel false
param *.**.nic.phy80211p.analogueModels "xmldoc(\"config.xml\")"
param *.**.nic.phy80211p.decider "xmldoc(\"config.xml\")"
param *.**.nic.phy80211p.maxTXPower 100mW
param *.**.nic.phy80211p.sensitivity -94dBm
param *.**.nic.phy80211p.thermalNoise -95dBm
param *.**.nic.phy80211p.usePropagationDelay true
param *.**.nic.phy80211p.useThermalNoise true
param *.annotations.draw false
param *.connectionManager.alpha 2.0
param *.connectionManager.carrierFrequency "5.890e9 Hz"
param *.connectionManager.pMax 100mW
param *.connectionManager.sat -94dBm
param *.connectionManager.sendDirect true
param *.manager.autoShutdown true
param *.manager.commandLine "\"sumo --remote-port $port --seed $seed --configuration-file $configFile\""
param *.manager.configFile "\"./sumocfg/freeway.sumo.cfg\""
param *.manager.host "\"localhost\""
param *.manager.margin 25
param *.manager.moduleDisplayString "\"\""
param *.manager.moduleName "\"node\""
param *.manager.moduleType "\"Car\""
param *.manager.updateInterval 0.01s
param *.node[*].appl.attackStart 32.5s
param *.node[*].appl.attackerType 1
param *.node[*].appl.simulationDuration "60 s"
param *.node[*].appl_type "\"SimplePlatooningApp\""
param *.node[*].helper.nCars 8
param *.node[*].helper.nLanes 1
param *.node[*].helper.platoonSize 8
param *.node[*].helper_type "\"PositionHelper\""
param *.node[*].mobility.x 0
param *.node[*].mobility.y 0
param *.node[*].mobility.z 1.895
param *.node[*].prot.attackStart 32.5s
param *.node[*].prot.attackerType 1
param *.node[*].prot.attackingNode 3
param *.node[*].prot.beaconingInterval 0.1s
param *.node[*].prot.fakeAcc "(1 == 4)"
param *.node[*].prot.fakePos "(1 == 2)"
param *.node[*].prot.fakeSpeed "(1 == 3)"
param *.node[*].prot.maliciousAcc "-30 mpss"
param *.node[*].prot.maliciousSpeed 150kmph
param *.node[*].prot.packetSize 200
param *.node[*].prot.priority 2
param *.node[*].prot.shiftX "7 m"
param *.node[*].prot.useControllerAcceleration true
param *.node[*].protocol_type "\"SimplePlatooningBeaconing\""
param *.node[*].scenario.accHeadway 0.1s
param *.node[*].scenario.caccC1 0.5
param *.node[*].scenario.caccOmegaN "0.2 Hz"
param *.node[*].scenario.caccSpacing 5m
param *.node[*].scenario.caccXi 1
param *.node[*].scenario.controller "\"CACC\""
param *.node[*].scenario.engineTau "0.5 s"
param *.node[*].scenario.leaderHeadway 1.2s
param *.node[*].scenario.leaderOscillationFrequency "0.2 Hz"
param *.node[*].scenario.leaderSpeed 50kmph
param *.node[*].scenario.oscillationAmplitude "10 kmph"
param *.node[*].scenario.ploegH 0.5s
param *.node[*].scenario.ploegKd 0.7
param *.node[*].scenario.ploegKp 0.2
param *.node[*].scenario.startOscillating "5 s"
param *.node[*].scenario.useRealisticEngine false
param *.node[*].scenario_type "\"SinusoidalScenario\""
param *.node[*].unicast.packetLossRate 0
param *.obstacles.debug false
param *.playgroundSizeX 65000m
param *.playgroundSizeY 25000m
param *.playgroundSizeZ 50m
param *.world.use2D false
param *.world.useTorus false

vector 0  scenario.node[0].appl  distance  ETV
vector 1  scenario.node[0].appl  relativeSpeed  ETV
vector 2  scenario.node[0].appl  nodeId  ETV
vector 6  scenario.node[0].appl  acceleration  ETV
vector 7  scenario.node[0].appl  controllerAcceleration  ETV
vector 3  scenario.node[0].appl  speed  ETV
vector 4  scenario.node[0].appl  posx  ETV
vector 5  scenario.node[0].appl  posy  ETV
vector 22  scenario.node[1].appl  distance  ETV
vector 23  scenario.node[1].appl  relativeSpeed  ETV
vector 24  scenario.node[1].appl  nodeId  ETV
vector 28  scenario.node[1].appl  acceleration  ETV
vector 29  scenario.node[1].appl  controllerAcceleration  ETV
vector 25  scenario.node[1].appl  speed  ETV
vector 26  scenario.node[1].appl  posx  ETV
vector 27  scenario.node[1].appl  posy  ETV
vector 44  scenario.node[2].appl  distance  ETV
vector 45  scenario.node[2].appl  relativeSpeed  ETV
vector 46  scenario.node[2].appl  nodeId  ETV
vector 50  scenario.node[2].appl  acceleration  ETV
vector 51  scenario.node[2].appl  controllerAcceleration  ETV
vector 47  scenario.node[2].appl  speed  ETV
vector 48  scenario.node[2].appl  posx  ETV
vector 49  scenario.node[2].appl  posy  ETV
vector 66  scenario.node[3].appl  distance  ETV
vector 67  scenario.node[3].appl  relativeSpeed  ETV
vector 68  scenario.node[3].appl  nodeId  ETV
vector 72  scenario.node[3].appl  acceleration  ETV
vector 73  scenario.node[3].appl  controllerAcceleration  ETV
vector 69  scenario.node[3].appl  speed  ETV
vector 70  scenario.node[3].appl  posx  ETV
vector 71  scenario.node[3].appl  posy  ETV
vector 88  scenario.node[4].appl  distance  ETV
vector 89  scenario.node[4].appl  relativeSpeed  ETV
vector 90  scenario.node[4].appl  nodeId  ETV
vector 94  scenario.node[4].appl  acceleration  ETV
vector 95  scenario.node[4].appl  controllerAcceleration  ETV
vector 91  scenario.node[4].appl  speed  ETV
vector 92  scenario.node[4].appl  posx  ETV
vector 93  scenario.node[4].appl  posy  ETV
vector 110  scenario.node[5].appl  distance  ETV
vector 111  scenario.node[5].appl  relativeSpeed  ETV
vector 112  scenario.node[5].appl  nodeId  ETV
vector 116  scenario.node[5].appl  acceleration  ETV
vector 117  scenario.node[5].appl  controllerAcceleration  ETV
vector 113  scenario.node[5].appl  speed  ETV
vector 114  scenario.node[5].appl  posx  ETV
vector 115  scenario.node[5].appl  posy  ETV
vector 132  scenario.node[6].appl  distance  ETV
vector 133  scenario.node[6].appl  relativeSpeed  ETV
vector 134  scenario.node[6].appl  nodeId  ETV
vector 138  scenario.node[6].appl  acceleration  ETV
vector 139  scenario.node[6].appl  controllerAcceleration  ETV
vector 135  scenario.node[6].appl  speed  ETV
vector 136  scenario.node[6].appl  posx  ETV
vector 137  scenario.node[6].appl  posy  ETV
vector 154  scenario.node[7].appl  distance  ETV
vector 155  scenario.node[7].appl  relativeSpeed  ETV
vector 156  scenario.node[7].appl  nodeId  ETV
vector 160  scenario.node[7].appl  acceleration  ETV
vector 161  scenario.node[7].appl  controllerAcceleration  ETV
vector 157  scenario.node[7].appl  speed  ETV
vector 158  scenario.node[7].appl  posx  ETV
vector 159  scenario.node[7].appl  posy  ETV
vector 58  scenario.node[2].prot  frontDelay  ETV
vector 56  scenario.node[2].prot  frontDelayId  ETV
vector 102  scenario.node[4].prot  frontDelay  ETV
vector 100  scenario.node[4].prot  frontDelayId  ETV
vector 146  scenario.node[6].prot  frontDelay  ETV
vector 144  scenario.node[6].prot  frontDelayId  ETV
vector 168  scenario.node[7].prot  frontDelay  ETV
vector 166  scenario.node[7].prot  frontDelayId  ETV
vector 124  scenario.node[5].prot  frontDelay  ETV
vector 122  scenario.node[5].prot  frontDelayId  ETV
vector 35  scenario.node[1].prot  leaderDelay  ETV
vector 33  scenario.node[1].prot  leaderDelayId  ETV
vector 36  scenario.node[1].prot  frontDelay  ETV
vector 34  scenario.node[1].prot  frontDelayId  ETV
vector 57  scenario.node[2].prot  leaderDelay  ETV
vector 55  scenario.node[2].prot  leaderDelayId  ETV
vector 79  scenario.node[3].prot  leaderDelay  ETV
vector 77  scenario.node[3].prot  leaderDelayId  ETV
vector 101  scenario.node[4].prot  leaderDelay  ETV
vector 99  scenario.node[4].prot  leaderDelayId  ETV
vector 123  scenario.node[5].prot  leaderDelay  ETV
vector 121  scenario.node[5].prot  leaderDelayId  ETV
vector 145  scenario.node[6].prot  leaderDelay  ETV
vector 143  scenario.node[6].prot  leaderDelayId  ETV
vector 167  scenario.node[7].prot  leaderDelay  ETV
vector 165  scenario.node[7].prot  leaderDelayId  ETV
vector 80  scenario.node[3].prot  frontDelay  ETV
vector 78  scenario.node[3].prot  frontDelayId  ETV
vector 8  scenario.node[0].prot  nodeId  ETV
vector 9  scenario.node[0].prot  busyTime  ETV
vector 10  scenario.node[0].prot  collisions  ETV
vector 30  scenario.node[1].prot  nodeId  ETV
vector 31  scenario.node[1].prot  busyTime  ETV
vector 32  scenario.node[1].prot  collisions  ETV
vector 52  scenario.node[2].prot  nodeId  ETV
vector 53  scenario.node[2].prot  busyTime  ETV
vector 54  scenario.node[2].prot  collisions  ETV
vector 74  scenario.node[3].prot  nodeId  ETV
vector 75  scenario.node[3].prot  busyTime  ETV
vector 76  scenario.node[3].prot  collisions  ETV
vector 96  scenario.node[4].prot  nodeId  ETV
vector 97  scenario.node[4].prot  busyTime  ETV
vector 98  scenario.node[4].prot  collisions  ETV
vector 118  scenario.node[5].prot  nodeId  ETV
vector 119  scenario.node[5].prot  busyTime  ETV
vector 120  scenario.node[5].prot  collisions  ETV
vector 140  scenario.node[6].prot  nodeId  ETV
vector 141  scenario.node[6].prot  busyTime  ETV
vector 142  scenario.node[6].prot  collisions  ETV
vector 162  scenario.node[7].prot  nodeId  ETV
vector 163  scenario.node[7].prot  busyTime  ETV
vector 164  scenario.node[7].prot  collisions  ETV
7	11235 13860 232 328174 1.11 59.91 589 -1.5 1.5 -14.445969899918 993.24092361736
6	25095 18587 232 328174 1.11 59.91 589 -1.472274679513 1.4513434175798 -12.507264912644 675.29835211523
5	43682 12081 232 328174 1.11 59.91 589 36.55 36.55 21527.95 786846.5725
4	55763 17921 232 328174 1.11 59.91 589 96.994281387196 917.97707988514 299728.83487457 185573578.91114
3	73684 17901 232 328174 1.11 59.91 589 12.599076970844 15.853603639796 8223.2832500118 115251.79065057
1	91585 9725 232 328174 1.11 59.91 589 0 0 0 0
0	101310 10314 232 328174 1.11 59.91 589 -1 -1 -589 589
2	111624 9725 232 328174 1.11 59.91 589 0 0 0 0
10	121349 858 5168 328662 2 60 59 0 0 0 0
9	122207 1154 5168 328662 2 60 59 0.023297 0.02625 1.545797 0.040508375209
8	123361 799 5168 328662 2 60 59 0 0 0 0
29	124160 19458 233 328175 1.11 59.91 589 -1.555555192602 1.5570065793937 -0.45357429710812 530.86493132592
28	143618 19510 233 328175 1.11 59.91 589 -1.4954736405162 1.4761401704378 -0.42968706903697 356.95243836012
27	163128 12670 233 328175 1.11 59.91 589 36.55 36.55 21527.95 786846.5725
26	175798 18498 233 328175 1.11 59.91 589 87.994281387329 898.86889046829 292954.18061077 177894089.85536
25	194296 18491 233 328175 1.11 59.91 589 12.582739554075 15.862412181803 8122.6196548582 112343.83408547
23	212787 19539 233 328175 1.11 59.91 589 -1.2755473628069 2.1868022727363 100.78866780268 299.45744665869
22	232326 18504 233 328175 1.11 59.91 589 2.8022067073388 15.702764611667 4416.640991902 41749.421956657
24	250830 10314 233 328175 1.11 59.91 589 1 1 589 589
36	261144 23698 1238 328624 1.297801900626 59.997800142921 588 0.099998468439 0.100011840797 58.799996722629 5.879999354285
35	284842 23698 1238 328624 1.297801900626 59.997800142921 588 0.099998468439 0.100011840797 58.799996722629 5.879999354285
34	308540 16109 1238 328624 1.297801900626 59.997800142921 588 1 1 588 588
33	324649 16109 1238 328624 1.297801900626 59.997800142921 588 1 1 588 588
32	340758 858 5169 328663 2 60 59 0 0 0 0
31	341616 1213 5169 328663 2 60 59 0.023297 0.02625 1.545797 0.040508375209
30	342829 858 5169 328663 2 60 59 1 1 59 59
51	343687 19399 234 328176 1.11 59.91 589 -1.5092135974097 1.5122039406897 -1.534916897105 506.65517234266
50	363086 19466 234 328176 1.11 59.91 589 -1.4841297326063 1.4673660724707 -1.568966588629 354.56838905741
49	382552 12670 234 328176 1.11 59.91 589 36.55 36.55 21527.95 786846.5725
48	395222 18499 234 328176 1.11 59.91 589 78.994281387329 882.33168538189 286588.20127955 171022040.41503
47	413721 18492 234 328176 1.11 59.91 589 12.521878033884 15.851008825246 8047.2077058076 110355.44234072
45	432213 19947 234 328176 1.11 59.91 589 -0.010773795666012 0.48477238925249 75.416245921348 27.110414915191
44	452160 18477 234 328176 1.11 59.91 589 4.9921308220553 12.534924410086 4008.471092236 31444.866280032
46	470637 10314 234 328176 1.11 59.91 589 2 2 1178 2356
58	480951 23687 832 328212 1.212435510355 59.912433464329 588 0.09999846857 0.10001184165 58.799996434308 5.8799992966228
57	504638 23709 1244 328630 1.297801930647 59.997800198114 588 0.099998468477 0.100011840834 58.799996747801 5.8799993593194
56	528347 16109 832 328212 1.212435510355 59.912433464329 588 2 2 1176 2352
55	544456 16118 1244 328630 1.297801930647 59.997800198114 588 2 2 1176 2352
54	560574 858 5170 328664 2 60 59 0 0 0 0
53	561432 1213 5170 328664 2 60 59 0.023296 0.02625 1.545796 0.040508328616
52	562645 858 5170 328664 2 60 59 2 2 118 236
73	563503 19357 235 328177 1.11 59.91 589 -1.4954488815774 1.4986508547754 -2.9496124471674 494.17777143498
72	582860 19424 235 328177 1.11 59.91 589 -1.4697266269408 1.4522561960337 -3.0440698102169 350.06472815736
71	602284 12670 235 328177 1.11 59.91 589 36.55 36.55 21527.95 786846.5725
70	614954 18501 235 328177 1.11 59.91 589 69.994281387329 866.24230416221 280388.05110658 164534256.32268
69	633455 18487 235 328177 1.11 59.91 589 12.173473434805 15.836008806661 7976.262179674 108521.6371023
67	651942 19814 235 328177 1.11 59.91 589 -0.02193620377763 0.43265108153851 70.961215799431 23.108626785146
66	671756 18478 235 328177 1.11 59.91 589 4.9809316343225 12.086421588909 3842.7312624468 28331.30241967
68	690234 10314 235 328177 1.11 59.91 589 3 3 1767 5301
80	700548 23711 1312 328701 1.307223960668 60.007222251827 588 0.099998468495 0.100011843584 58.799996771493 5.8799993640623
79	724259 23716 1250 328636 1.297801960667 59.997800251821 588 0.099998468495 0.100011840885 58.799996771488 5.8799993640568
78	747975 16129 1312 328701 1.307223960668 60.007222251827 588 3 3 1764 5292
77	764104 16127 1250 328636 1.297801960667 59.997800251821 588 3 3 1764 5292
76	780231 858 5171 328665 2 60 59 0 0 0 0
75	781089 1213 5171 328665 2 60 59 0.023297 0.02625 1.545797 0.040508375209
74	782302 858 5171 328665 2 60 59 3 3 177 531
95	783160 19377 236 328178 1.11 59.91 589 -1.5015734358673 1.5060862511444 -4.7410001620082 503.34547829265
94	802537 19437 236 328178 1.11 59.91 589 -1.4671620223636 1.4503898338162 -4.8951161902787 350.96398312002
93	821974 12670 236 328178 1.11 59.91 589 36.55 36.55 21527.95 786846.5725
92	834644 18488 236 328178 1.11 59.91 589 60.994281387329 850.70735261606 274338.34922538 158399931.07249
91	853132 18504 236 328178 1.11 59.91 589 11.894545090458 15.831996514873 7910.8477982546 106865.29461989
89	871636 19846 236 328178 1.11 59.91 589 -0.013223228742271 0.37549649756181 65.444822117576 19.588284924795
88	891482 18477 236 328178 1.11 59.91 589 4.9999999953162 11.531239845064 3692.3935935753 25614.276015817
90	909959 10314 236 328178 1.11 59.91 589 4 4 2356 9424
102	920273 24288 902 328282 1.235039570397 59.935037569829 588 0.099998468599 0.100011841767 58.799996479766 5.8799993057144
101	944561 24293 1256 328642 1.297801990688 59.99780030369 588 0.099998468507 0.10001184095 58.799996793336 5.8799993684264
100	968854 16715 902 328282 1.235039570397 59.935037569829 588 4 4 2352 9408
99	985569 16130 1256 328642 1.297801990688 59.99780030369 588 4 4 2352 9408
98	1001699 858 5172 328666 2 60 59 0 0 0 0
97	1002557 1213 5172 328666 2 60 59 0.023297 0.02625 1.545797 0.040508375209
96	1003770 858 5172 328666 2 60 59 4 4 236 944
117	1004628 19959 237 328179 1.11 59.91 589 -1.5284774903854 1.5300606513299 -6.9279902339364 518.57286367802
116	1024587 20041 237 328179 1.11 59.91 589 -1.4661745218426 1.4484846957759 -7.0852510284508 351.54197320788
115	1044628 13259 237 328179 1.11 59.91 589 36.55 36.55 21527.95 786846.5725
114	1057887 19084 237 328179 1.11 59.91 589 51.994283294678 835.78717229988 268424.75411367 152589905.42596
113	1076971 19085 237 328179 1.11 59.91 589 11.666922897214 15.829041182727 7851.5692079686 105391.473867
111	1096056 20377 237 328179 1.11 59.91 589 -0.02020616952422 0.34215460321536 59.327541447875 16.82002551579
110	1116433 19091 237 328179 1.11 59.91 589 4.9767683977573 10.915785362475 3556.4095398999 23292.181893303
112	1135524 10903 237 328179 1.11 59.91 589 5 5 2945 14725
124	1146427 24286 1178 328558 1.297388780543 59.997386905149 588 0.099998468604 0.100011843953 58.79999660494 5.8799993307517
123	1170713 24293 1262 328648 1.297802020709 59.997800353516 588 0.09999846851 0.100011841028 58.799996813141 5.8799993723874
122	1195006 16700 1178 328558 1.297388780543 59.997386905149 588 5 5 2940 14700
121	1211706 16711 1262 328648 1.297802020709 59.997800353516 588 5 5 2940 14700
120	1228417 917 5173 328667 2 60 59 0 0 0 0
119	1229334 1272 5173 328667 2 60 59 0.023297 0.02625 1.545797 0.040508375209
118	1230606 917 5173 328667 2 60 59 5 5 295 1475
139	1231523 19957 238 328180 1.11 59.91 589 -1.4999727101691 1.5046152425958 -9.2524771274065 500.91527378698
138	1251480 19998 238 328180 1.11 59.91 589 -1.4605505414469 1.4432664548902 -9.5361372939383 349.24160094932
137	1271478 13259 238 328180 1.11 59.91 589 36.55 36.55 21527.95 786846.5725
136	1284737 19082 238 328180 1.11 59.91 589 42.994283294678 821.52995721267 262624.80175761 147065502.1378
135	1303819 19066 238 328180 1.11 59.91 589 11.484678623066 15.821388946288 7798.9112193794 104101.67462627
133	1322885 20396 238 328180 1.11 59.91 589 -0.021674888934045 0.31358944397927 52.72884109947 13.842390668544
132	1343281 19047 238 328180 1.11 59.91 589 4.9964405635409 10.25230658754 3442.899196292 21420.221545476
134	1362328 10903 238 328180 1.11 59.91 589 6 6 3534 21204
146	1373231 24286 970 328350 1.248712630439 59.948710667193 588 0.099998468588 0.100011843544 58.799996517088 5.8799993131812
145	1397517 24278 1268 328654 1.29780205073 59.997800401139 588 0.099998468512 0.100011841112 58.799996830743 5.8799993759078
144	1421795 16698 970 328350 1.248712630439 59.948710667193 588 6 6 3528 21168
143	1438493 16697 1268 328654 1.29780205073 59.997800401139 588 6 6 3528 21168
142	1455190 917 5174 328668 2 60 59 0 0 0 0
141	1456107 1272 5174 328668 2 60 59 0.023297 0.02625 1.545797 0.040508375209
140	1457379 917 5174 328668 2 60 59 6 6 354 2124
161	1458296 19945 239 328181 1.11 59.91 589 -1.509393506231 1.5126459099554 -11.850823032034 509.52321939612
160	1478241 20015 239 328181 1.11 59.91 589 -1.4619692834163 1.4451435686761 -12.135050617566 351.03178852792
159	1498256 13259 239 328181 1.11 59.91 589 36.55 36.55 21527.95 786846.5725
158	1511515 19086 239 328181 1.11 59.91 589 33.994282817841 807.95414066269 256923.30042322 141798404.90985
157	1530601 19095 239 328181 1.11 59.91 589 11.336258020688 15.823091754854 7753.0620781978 102999.50556447
155	1549696 20419 239 328181 1.11 59.91 589 -0.021906761867797 0.28967145093849 45.944502554491 11.091934684042
154	1570115 19098 239 328181 1.11 59.91 589 4.9915517824016 9.5706116096594 3344.5843515687 19885.737874975
156	1589213 10903 239 328181 1.11 59.91 589 7 7 4123 28861
168	1600116 24276 1040 328420 1.26389366046 59.96389171252 588 0.099998468592 0.100011843632 58.799996532394 5.8799993162427
167	1624392 24276 1274 328660 1.29780208075 59.997800446492 588 0.099998468516 0.100011841202 58.799996846076 5.8799993789744
166	1648668 16691 1040 328420 1.26389366046 59.96389171252 588 7 7 4116 28812
165	1665359 16698 1274 328660 1.29780208075 59.997800446492 588 7 7 4116 28812
164	1682057 917 5175 328669 2 60 59 0 0 0 0
163	1682974 1272 5175 328669 2 60 59 0.023297 0.02625 1.545797 0.040508375209
162	1684246 917 5175 328669 2 60 59 7 7 413 2891
