file 988665 1501603425                                          
version 2
run SinusoidalJammingDetail-531-20170801-18:03:24-105480
attr CACCSpacing 9
attr attackAcc -30
attr attackPos 7
attr attackSpeed 150
attr attackStart 32
attr attacker 1
attr beaconInterval 0.1
attr configname SinusoidalJammingDetail
attr controller 1
attr datetime 20170801-18:03:24
attr experiment SinusoidalJammingDetail
attr fakeAcc "(1 == 4)"
attr fakePos "(1 == 2)"
attr fakeSpeed "(1 == 3)"
attr inifile omnetpp_531.ini
attr iterationvars "$leaderSpeed=120, $controller=1, $CACCSpacing=9, $sController=\"CACC\", $attacker=1, $attackStart=32, $attackSpeed=150, $attackPos=7, $attackAcc=-30, $0=9, $1=0, $nCars=8, $platoonSize=8, $nLanes=1, $beaconInterval=0.1, $priority=2, $packetSize=200, $ploegH=0.5, $leaderHeadway=1.2, $fakeSpeed=(1 == 3), $fakeAcc=(1 == 4), $fakePos=(1 == 2)"
attr iterationvarsf leaderSpeed=120,controller=1,CACCSpacing=9,sController=CACC,attacker=1,attackStart=32,attackSpeed=150,attackPos=7,attackAcc=-30,9,0,nCars=8,platoonSize=8,nLanes=1,beaconInterval=0.1,priority=2,packetSize=200,ploegH=0.5,leaderHeadway=1.2,fakeSpeed=(1_==_3),fakeAcc=(1_==_4),fakePos=(1_==_2)-
attr leaderHeadway 1.2
attr leaderSpeed 120
attr measurement "$leaderSpeed=120, $controller=1, $CACCSpacing=9, $sController=\"CACC\", $attacker=1, $attackStart=32, $attackSpeed=150, $attackPos=7, $attackAcc=-30, $0=9, $1=0, $nCars=8, $platoonSize=8, $nLanes=1, $beaconInterval=0.1, $priority=2, $packetSize=200, $ploegH=0.5, $leaderHeadway=1.2, $fakeSpeed=(1 == 3), $fakeAcc=(1 == 4), $fakePos=(1 == 2)"
attr nCars 8
attr nLanes 1
attr network scenario
attr packetSize 200
attr platoonSize 8
attr ploegH 0.5
attr priority 2
attr processid 105480
attr repetition 1
attr replication #1
attr resultdir results
attr runnumber 531
attr sController "\"CACC\""
attr seedset 1
param **.coreDebug false
param **.debug false
param **.headway 0.1s
param **.numberOfCars 8
param **.numberOfCarsPerPlatoon 8
param **.numberOfLanes 1
param **.numericController 1
param **.traffic.nCars 8
param **.traffic.nLanes 1
param **.traffic.platoonInsertDistance 9m
param **.traffic.platoonInsertHeadway 0s
param **.traffic.platoonInsertSpeed 120kmph
param **.traffic.platoonInsertTime "1 s"
param **.traffic.platoonLeaderHeadway 1.2s
param **.traffic.platoonSize 8
param **.traffic.platooningVType "\"vtypeauto\""
param **.traffic_type "\"PlatoonsTrafficManager\""
param *.**.nic.mac1609_4.bitrate 6Mbps
param *.**.nic.mac1609_4.txPower 100mW
param *.**.nic.mac1609_4.useServiceChannel false
param *.**.nic.phy80211p.analogueModels "xmldoc(\"config.xml\")"
param *.**.nic.phy80211p.decider "xmldoc(\"config.xml\")"
param *.**.nic.phy80211p.maxTXPower 100mW
param *.**.nic.phy80211p.sensitivity -94dBm
param *.**.nic.phy80211p.thermalNoise -95dBm
param *.**.nic.phy80211p.usePropagationDelay true
param *.**.nic.phy80211p.useThermalNoise true
param *.annotations.draw false
param *.connectionManager.alpha 2.0
param *.connectionManager.carrierFrequency "5.890e9 Hz"
param *.connectionManager.pMax 100mW
param *.connectionManager.sat -94dBm
param *.connectionManager.sendDirect true
param *.manager.autoShutdown true
param *.manager.commandLine "\"sumo --remote-port $port --seed $seed --configuration-file $configFile\""
param *.manager.configFile "\"./sumocfg/freeway.sumo.cfg\""
param *.manager.host "\"localhost\""
param *.manager.margin 25
param *.manager.moduleDisplayString "\"\""
param *.manager.moduleName "\"node\""
param *.manager.moduleType "\"Car\""
param *.manager.updateInterval 0.01s
param *.node[*].appl.attackStart 32s
param *.node[*].appl.attackerType 1
param *.node[*].appl.simulationDuration "60 s"
param *.node[*].appl_type "\"SimplePlatooningApp\""
param *.node[*].helper.nCars 8
param *.node[*].helper.nLanes 1
param *.node[*].helper.platoonSize 8
param *.node[*].helper_type "\"PositionHelper\""
param *.node[*].mobility.x 0
param *.node[*].mobility.y 0
param *.node[*].mobility.z 1.895
param *.node[*].prot.attackStart 32s
param *.node[*].prot.attackerType 1
param *.node[*].prot.attackingNode 3
param *.node[*].prot.beaconingInterval 0.1s
param *.node[*].prot.fakeAcc "(1 == 4)"
param *.node[*].prot.fakePos "(1 == 2)"
param *.node[*].prot.fakeSpeed "(1 == 3)"
param *.node[*].prot.maliciousAcc "-30 mpss"
param *.node[*].prot.maliciousSpeed 150kmph
param *.node[*].prot.packetSize 200
param *.node[*].prot.priority 2
param *.node[*].prot.shiftX "7 m"
param *.node[*].prot.useControllerAcceleration true
param *.node[*].protocol_type "\"SimplePlatooningBeaconing\""
param *.node[*].scenario.accHeadway 0.1s
param *.node[*].scenario.caccC1 0.5
param *.node[*].scenario.caccOmegaN "0.2 Hz"
param *.node[*].scenario.caccSpacing 9m
param *.node[*].scenario.caccXi 1
param *.node[*].scenario.controller "\"CACC\""
param *.node[*].scenario.engineTau "0.5 s"
param *.node[*].scenario.leaderHeadway 1.2s
param *.node[*].scenario.leaderOscillationFrequency "0.2 Hz"
param *.node[*].scenario.leaderSpeed 120kmph
param *.node[*].scenario.oscillationAmplitude "10 kmph"
param *.node[*].scenario.ploegH 0.5s
param *.node[*].scenario.ploegKd 0.7
param *.node[*].scenario.ploegKp 0.2
param *.node[*].scenario.startOscillating "5 s"
param *.node[*].scenario.useRealisticEngine false
param *.node[*].scenario_type "\"SinusoidalScenario\""
param *.node[*].unicast.packetLossRate 0
param *.obstacles.debug false
param *.playgroundSizeX 65000m
param *.playgroundSizeY 25000m
param *.playgroundSizeZ 50m
param *.world.use2D false
param *.world.useTorus false

vector 0  scenario.node[0].appl  distance  ETV
vector 1  scenario.node[0].appl  relativeSpeed  ETV
vector 2  scenario.node[0].appl  nodeId  ETV
vector 6  scenario.node[0].appl  acceleration  ETV
vector 7  scenario.node[0].appl  controllerAcceleration  ETV
vector 3  scenario.node[0].appl  speed  ETV
vector 4  scenario.node[0].appl  posx  ETV
vector 5  scenario.node[0].appl  posy  ETV
vector 22  scenario.node[1].appl  distance  ETV
vector 23  scenario.node[1].appl  relativeSpeed  ETV
vector 24  scenario.node[1].appl  nodeId  ETV
vector 28  scenario.node[1].appl  acceleration  ETV
vector 29  scenario.node[1].appl  controllerAcceleration  ETV
vector 25  scenario.node[1].appl  speed  ETV
vector 26  scenario.node[1].appl  posx  ETV
vector 27  scenario.node[1].appl  posy  ETV
vector 44  scenario.node[2].appl  distance  ETV
vector 45  scenario.node[2].appl  relativeSpeed  ETV
vector 46  scenario.node[2].appl  nodeId  ETV
vector 50  scenario.node[2].appl  acceleration  ETV
vector 51  scenario.node[2].appl  controllerAcceleration  ETV
vector 47  scenario.node[2].appl  speed  ETV
vector 48  scenario.node[2].appl  posx  ETV
vector 49  scenario.node[2].appl  posy  ETV
vector 66  scenario.node[3].appl  distance  ETV
vector 67  scenario.node[3].appl  relativeSpeed  ETV
vector 68  scenario.node[3].appl  nodeId  ETV
vector 72  scenario.node[3].appl  acceleration  ETV
vector 73  scenario.node[3].appl  controllerAcceleration  ETV
vector 69  scenario.node[3].appl  speed  ETV
vector 70  scenario.node[3].appl  posx  ETV
vector 71  scenario.node[3].appl  posy  ETV
vector 88  scenario.node[4].appl  distance  ETV
vector 89  scenario.node[4].appl  relativeSpeed  ETV
vector 90  scenario.node[4].appl  nodeId  ETV
vector 94  scenario.node[4].appl  acceleration  ETV
vector 95  scenario.node[4].appl  controllerAcceleration  ETV
vector 91  scenario.node[4].appl  speed  ETV
vector 92  scenario.node[4].appl  posx  ETV
vector 93  scenario.node[4].appl  posy  ETV
vector 110  scenario.node[5].appl  distance  ETV
vector 111  scenario.node[5].appl  relativeSpeed  ETV
vector 112  scenario.node[5].appl  nodeId  ETV
vector 116  scenario.node[5].appl  acceleration  ETV
vector 117  scenario.node[5].appl  controllerAcceleration  ETV
vector 113  scenario.node[5].appl  speed  ETV
vector 114  scenario.node[5].appl  posx  ETV
vector 115  scenario.node[5].appl  posy  ETV
vector 132  scenario.node[6].appl  distance  ETV
vector 133  scenario.node[6].appl  relativeSpeed  ETV
vector 134  scenario.node[6].appl  nodeId  ETV
vector 138  scenario.node[6].appl  acceleration  ETV
vector 139  scenario.node[6].appl  controllerAcceleration  ETV
vector 135  scenario.node[6].appl  speed  ETV
vector 136  scenario.node[6].appl  posx  ETV
vector 137  scenario.node[6].appl  posy  ETV
vector 154  scenario.node[7].appl  distance  ETV
vector 155  scenario.node[7].appl  relativeSpeed  ETV
vector 156  scenario.node[7].appl  nodeId  ETV
vector 160  scenario.node[7].appl  acceleration  ETV
vector 161  scenario.node[7].appl  controllerAcceleration  ETV
vector 157  scenario.node[7].appl  speed  ETV
vector 158  scenario.node[7].appl  posx  ETV
vector 159  scenario.node[7].appl  posy  ETV
vector 58  scenario.node[2].prot  frontDelay  ETV
vector 56  scenario.node[2].prot  frontDelayId  ETV
vector 102  scenario.node[4].prot  frontDelay  ETV
vector 100  scenario.node[4].prot  frontDelayId  ETV
vector 146  scenario.node[6].prot  frontDelay  ETV
vector 144  scenario.node[6].prot  frontDelayId  ETV
vector 168  scenario.node[7].prot  frontDelay  ETV
vector 166  scenario.node[7].prot  frontDelayId  ETV
vector 124  scenario.node[5].prot  frontDelay  ETV
vector 122  scenario.node[5].prot  frontDelayId  ETV
vector 35  scenario.node[1].prot  leaderDelay  ETV
vector 33  scenario.node[1].prot  leaderDelayId  ETV
vector 36  scenario.node[1].prot  frontDelay  ETV
vector 34  scenario.node[1].prot  frontDelayId  ETV
vector 57  scenario.node[2].prot  leaderDelay  ETV
vector 55  scenario.node[2].prot  leaderDelayId  ETV
vector 79  scenario.node[3].prot  leaderDelay  ETV
vector 77  scenario.node[3].prot  leaderDelayId  ETV
vector 101  scenario.node[4].prot  leaderDelay  ETV
vector 99  scenario.node[4].prot  leaderDelayId  ETV
vector 123  scenario.node[5].prot  leaderDelay  ETV
vector 121  scenario.node[5].prot  leaderDelayId  ETV
vector 145  scenario.node[6].prot  leaderDelay  ETV
vector 143  scenario.node[6].prot  leaderDelayId  ETV
vector 167  scenario.node[7].prot  leaderDelay  ETV
vector 165  scenario.node[7].prot  leaderDelayId  ETV
vector 80  scenario.node[3].prot  frontDelay  ETV
vector 78  scenario.node[3].prot  frontDelayId  ETV
vector 8  scenario.node[0].prot  nodeId  ETV
vector 9  scenario.node[0].prot  busyTime  ETV
vector 10  scenario.node[0].prot  collisions  ETV
vector 30  scenario.node[1].prot  nodeId  ETV
vector 31  scenario.node[1].prot  busyTime  ETV
vector 32  scenario.node[1].prot  collisions  ETV
vector 52  scenario.node[2].prot  nodeId  ETV
vector 53  scenario.node[2].prot  busyTime  ETV
vector 54  scenario.node[2].prot  collisions  ETV
vector 74  scenario.node[3].prot  nodeId  ETV
vector 75  scenario.node[3].prot  busyTime  ETV
vector 76  scenario.node[3].prot  collisions  ETV
vector 96  scenario.node[4].prot  nodeId  ETV
vector 97  scenario.node[4].prot  busyTime  ETV
vector 98  scenario.node[4].prot  collisions  ETV
vector 118  scenario.node[5].prot  nodeId  ETV
vector 119  scenario.node[5].prot  busyTime  ETV
vector 120  scenario.node[5].prot  collisions  ETV
vector 140  scenario.node[6].prot  nodeId  ETV
vector 141  scenario.node[6].prot  busyTime  ETV
vector 142  scenario.node[6].prot  collisions  ETV
vector 162  scenario.node[7].prot  nodeId  ETV
vector 163  scenario.node[7].prot  busyTime  ETV
vector 164  scenario.node[7].prot  collisions  ETV
7	11234 8275 232 193745 1.11 35.81 348 -1.5 1.5 -1.1779559958661 557.35883058508
6	19509 10925 232 193745 1.11 35.81 348 -1.4722746795918 1.4513407705138 -7.7261983639012 370.8927014918
5	30434 7020 232 193745 1.11 35.81 348 36.55 36.55 12719.4 464894.07
4	37454 10457 232 193745 1.11 35.81 348 126.93872566263 1286.889489343 246559.50290141 213963953.17325
3	47911 10463 232 193745 1.11 35.81 348 32.043531245463 35.298048086563 11632.562197961 389103.04580894
1	58374 5628 232 193745 1.11 35.81 348 0 0 0 0
0	64002 5976 232 193745 1.11 35.81 348 -1 -1 -348 348
2	69978 5628 232 193745 1.11 35.81 348 0 0 0 0
10	75606 483 5168 189212 2 35 34 0 0 0 0
9	76089 654 5168 189212 2 35 34 0.023297 0.02625 0.889547 0.023281812709
8	76743 449 5168 189212 2 35 34 0 0 0 0
51	77192 11192 234 193747 1.11 35.81 348 -1.5092135990203 1.5122039605917 35.568466919602 501.02974747992
50	88384 11230 234 193747 1.11 35.81 348 -1.4841297256552 1.4673660717939 34.584807098872 357.65011492439
49	99614 7368 234 193747 1.11 35.81 348 36.55 36.55 12719.4 464894.07
48	106982 10816 234 193747 1.11 35.81 348 100.93872566223 1270.0785712645 237608.93129975 201633816.02781
47	117798 10810 234 193747 1.11 35.81 348 32.037539659779 36.783844815701 11725.941119287 395550.36462897
45	128608 11992 234 193747 1.11 35.81 348 -0.43479515091015 0.01224105552933 -5.5414086063838 1.5564939959686
44	140600 10792 234 193747 1.11 35.81 348 8.5001068313907 9.0331338946911 3131.064869456 28172.540846196
46	151392 5976 234 193747 1.11 35.81 348 2 2 696 1392
58	157368 13870 832 193789 1.212435737176 35.812438239811 347 0.099998627229 0.10001169603 34.700001196448 3.4700002446077
57	171238 13865 1244 194201 1.297802344263 35.897804780531 347 0.099998624068 0.10001169604 34.700001130081 3.4700002313346
56	185103 9397 832 193789 1.212435737176 35.812438239811 347 2 2 694 1388
55	194500 9403 1244 194201 1.297802344263 35.897804780531 347 2 2 694 1388
54	203903 483 5170 189214 2 35 34 0 0 0 0
53	204386 688 5170 189214 2 35 34 0.023296 0.02625 0.889546 0.023281766116
52	205074 483 5170 189214 2 35 34 2 2 68 136
73	205557 11163 235 193748 1.11 35.81 348 -1.4954488831537 1.4986508830663 38.568679110084 489.90574433755
72	216720 11207 235 193748 1.11 35.81 348 -1.4697266158876 1.4522561949562 37.065728272038 354.01054829252
71	227927 7368 235 193748 1.11 35.81 348 36.55 36.55 12719.4 464894.07
70	235295 10808 235 193748 1.11 35.81 348 87.938725662231 1257.2879495882 233082.56322379 195513317.54389
69	246103 10806 235 193748 1.11 35.81 348 32.052330667067 37.026791272119 11728.120921249 395707.61209868
67	256909 11836 235 193748 1.11 35.81 348 -0.24500329087059 0.021653895288964 -2.5256500324739 0.47229500693287
66	268745 10810 235 193748 1.11 35.81 348 8.7954806054761 9.0520780830357 3134.411672 28231.721527804
68	279555 5976 235 193748 1.11 35.81 348 3 3 1044 3132
80	285531 13828 1312 193713 1.307224387626 35.807215199136 346 0.099998627434 0.100011695793 34.599989505323 3.459997906247
79	299359 13882 1250 194207 1.297802387626 35.897804823129 347 0.099998623985 0.100011696044 34.700001129316 3.4700002311816
78	313241 9371 1312 193713 1.307224387626 35.807215199136 346 3 3 1038 3114
77	322612 9402 1250 194207 1.297802387626 35.897804823129 347 3 3 1041 3123
76	332014 483 5171 189215 2 35 34 0 0 0 0
75	332497 688 5171 189215 2 35 34 0.023297 0.02625 0.889547 0.023281812709
74	333185 483 5171 189215 2 35 34 3 3 102 306
95	333668 11183 236 193749 1.11 35.81 348 -1.5015734375833 1.5060862754308 40.659770574305 499.26700679181
94	344851 11240 236 193749 1.11 35.81 348 -1.4671620087128 1.4503898313293 38.460589226233 355.02055241162
93	356091 7368 236 193749 1.11 35.81 348 36.55 36.55 12719.4 464894.07
92	363459 10797 236 193749 1.11 35.81 348 74.938725662231 1244.4232451577 228556.59960806 189510513.53163
91	374256 10801 236 193749 1.11 35.81 348 32.053768425274 37.160281070666 11729.521568291 395810.39326527
89	385057 11914 236 193749 1.11 35.81 348 -0.13693699239234 0.015827613819276 -1.7713043251046 0.1673226024637
88	396971 10778 236 193749 1.11 35.81 348 8.8673742263938 9.0167041099232 3133.9916286733 28223.966820962
90	407749 5976 236 193749 1.11 35.81 348 4 4 1392 5568
102	413725 14241 902 193859 1.235039823903 35.835042325379 347 0.099998627105 0.100011696033 34.700001195289 3.4700002443759
101	427966 14216 1256 194213 1.297802430989 35.897804866004 347 0.099998623939 0.100011696045 34.700001128828 3.470000231084
100	442182 9760 902 193859 1.235039823903 35.835042325379 347 4 4 1388 5552
99	451942 9396 1256 194213 1.297802430989 35.897804866004 347 4 4 1388 5552
98	461338 483 5172 189216 2 35 34 0 0 0 0
97	461821 688 5172 189216 2 35 34 0.023297 0.02625 0.889547 0.023281812709
96	462509 483 5172 189216 2 35 34 4 4 136 544
117	462992 11541 237 193750 1.11 35.81 348 -1.5284774934292 1.5300606689268 42.447197135098 514.68943895822
116	474533 11592 237 193750 1.11 35.81 348 -1.4661745194502 1.4484846902612 39.179475876936 355.51921222365
115	486125 7716 237 193750 1.11 35.81 348 36.55 36.55 12719.4 464894.07
114	493841 11164 237 193750 1.11 35.81 348 61.938725662231 1231.4179977801 224028.3665537 183620064.86474
113	505005 11149 237 193750 1.11 35.81 348 32.055706074266 37.2311667672 11729.49394681 395811.11998571
111	516154 12167 237 193750 1.11 35.81 348 -0.075152597129936 0.020930842263347 -0.35698441161092 0.099179152414215
110	528321 11125 237 193750 1.11 35.81 348 8.9767685062016 9.0611731999422 3136.232501923 28264.413217622
112	539446 6324 237 193750 1.11 35.81 348 5 5 1740 8700
124	545770 14216 1178 194135 1.297389127446 35.897391628521 347 0.099998630495 0.100011695862 34.700001194888 3.4700002442951
123	559986 14234 1262 194219 1.297802474353 35.897804909365 347 0.099998623914 0.100011696045 34.700001128825 3.4700002310834
122	574220 9740 1178 194135 1.297389127446 35.897391628521 347 5 5 1735 8675
121	583960 9746 1262 194219 1.297802474353 35.897804909365 347 5 5 1735 8675
120	593706 517 5173 189217 2 35 34 0 0 0 0
119	594223 722 5173 189217 2 35 34 0.023297 0.02625 0.889547 0.023281812709
118	594945 517 5173 189217 2 35 34 5 5 170 850
139	595462 11528 238 193751 1.11 35.81 348 -1.4999727128308 1.5046152762567 42.294763496198 497.17545860003
138	606990 11574 238 193751 1.11 35.81 348 -1.4605505185472 1.4432664526488 39.55656262815 353.12257346317
137	618564 7716 238 193751 1.11 35.81 348 36.55 36.55 12719.4 464894.07
136	626280 11151 238 193751 1.11 35.81 348 48.93872756958 1218.4440357424 219502.00306325 177851138.00558
135	637431 11155 238 193751 1.11 35.81 348 32.062141353617 37.265582539068 11729.766972397 395829.44037782
133	648586 12179 238 193751 1.11 35.81 348 -0.039226539490222 0.023302097965548 -0.66482034544032 0.088520805638847
132	660765 11161 238 193751 1.11 35.81 348 8.9746503530844 9.018853960014 3134.3689509638 28230.677357134
134	671926 6324 238 193751 1.11 35.81 348 6 6 2088 12528
146	678250 14216 970 193921 1.24871291063 35.848715412028 347 0.099998630565 0.10001169587 34.700001195211 3.4700002443597
145	692466 14217 1268 194225 1.297802517716 35.897804952632 347 0.099998623902 0.100011696048 34.700001128729 3.4700002310642
144	706683 9739 970 193921 1.24871291063 35.848715412028 347 6 6 2082 12492
143	716422 9743 1268 194225 1.297802517716 35.897804952632 347 6 6 2082 12492
142	726165 517 5174 189218 2 35 34 0 0 0 0
141	726682 722 5174 189218 2 35 34 0.023297 0.02625 0.889547 0.023281812709
140	727404 517 5174 189218 2 35 34 6 6 204 1224
161	727921 11542 239 193752 1.11 35.81 348 -1.5093935087262 1.5126459354654 42.891118114178 505.53935046367
160	739463 11598 239 193752 1.11 35.81 348 -1.4619692633033 1.4451435680144 39.797539756447 354.71465410376
159	751061 7716 239 193752 1.11 35.81 348 36.55 36.55 12719.4 464894.07
158	758777 11161 239 193752 1.11 35.81 348 35.938727092743 1205.4758521721 214976.02985863 172200266.85677
157	769938 11164 239 193752 1.11 35.81 348 32.06004265726 37.288924520354 11730.0932211 395854.28428875
155	781102 12199 239 193752 1.11 35.81 348 -0.028452225171002 0.024254054050104 -0.72181432926584 0.083199225415166
154	793301 11159 239 193752 1.11 35.81 348 8.968650409952 9.0179695854766 3133.9797295943 28223.673144674
156	804460 6324 239 193752 1.11 35.81 348 7 7 2436 17052
168	810784 14214 1040 193991 1.263893953993 35.863896455281 347 0.099998630558 0.100011695871 34.700001195101 3.4700002443376
167	824998 14211 1274 194231 1.297802561079 35.897804995883 347 0.099998623895 0.100011696047 34.700001128617 3.4700002310418
166	839209 9746 1040 193991 1.263893953993 35.863896455281 347 7 7 2429 17003
165	848955 9736 1274 194231 1.297802561079 35.897804995883 347 7 7 2429 17003
164	858691 517 5175 189219 2 35 34 0 0 0 0
163	859208 722 5175 189219 2 35 34 0.023297 0.02625 0.889547 0.023281812709
162	859930 517 5175 189219 2 35 34 7 7 238 1666
22	860447 10833 233 194234 1.11 35.9 349 0 9.1830419719692 3037.3743106342 27054.833058296
23	871280 11577 233 194234 1.11 35.9 349 -4.2561224716871 0.12345088245564 -91.794940902682 320.68332241673
24	882857 5993 233 194234 1.11 35.9 349 1 1 349 349
25	888850 10832 233 194234 1.11 35.9 349 32.027184001432 36.349050650936 11757.049289461 396493.3051955
26	899682 10836 233 194234 1.11 35.9 349 113.93872566223 1285.8413536912 243417.73272375 209517049.70462
27	910518 7389 233 194234 1.11 35.9 349 36.55 36.55 12755.95 466229.9725
28	917907 11269 233 194234 1.11 35.9 349 -1.4954736390223 1.4761401700966 30.124711991049 358.67729141703
29	929176 11235 233 194234 1.11 35.9 349 -1.5555551936108 1.5570065769543 30.638877514672 523.88833738304
30	940411 483 5169 189213 2 35 34 1 1 34 34
31	940894 688 5169 189213 2 35 34 0.023297 0.02625 0.889547 0.023281812709
32	941582 483 5169 189213 2 35 34 0 0 0 0
33	942065 9409 1238 194195 1.297802300899 35.897804738983 347 1 1 347 347
34	951474 9409 1238 194195 1.297802300899 35.897804738983 347 1 1 347 347
35	960883 13891 1238 194195 1.297802300899 35.897804738983 347 0.099998624216 0.100011696036 34.700001131897 3.4700002316978
36	974774 13891 1238 194195 1.297802300899 35.897804738983 347 0.099998624216 0.100011696036 34.700001131897 3.4700002316978
