version 2
run SinusoidalJammingDetail-241-20170801-16:49:10-93091
attr CACCSpacing 11
attr attackAcc -30
attr attackPos 7
attr attackSpeed 150
attr attackStart 30
attr attacker 1
attr beaconInterval 0.1
attr configname SinusoidalJammingDetail
attr controller 1
attr datetime 20170801-16:49:10
attr experiment SinusoidalJammingDetail
attr fakeAcc "(1 == 4)"
attr fakePos "(1 == 2)"
attr fakeSpeed "(1 == 3)"
attr inifile omnetpp_241.ini
attr iterationvars "$leaderSpeed=80, $controller=1, $CACCSpacing=11, $sController=\"CACC\", $attacker=1, $attackStart=30, $attackSpeed=150, $attackPos=7, $attackAcc=-30, $0=11, $1=0, $nCars=8, $platoonSize=8, $nLanes=1, $beaconInterval=0.1, $priority=2, $packetSize=200, $ploegH=0.5, $leaderHeadway=1.2, $fakeSpeed=(1 == 3), $fakeAcc=(1 == 4), $fakePos=(1 == 2)"
attr iterationvarsf leaderSpeed=80,controller=1,CACCSpacing=11,sController=CACC,attacker=1,attackStart=30,attackSpeed=150,attackPos=7,attackAcc=-30,11,0,nCars=8,platoonSize=8,nLanes=1,beaconInterval=0.1,priority=2,packetSize=200,ploegH=0.5,leaderHeadway=1.2,fakeSpeed=(1_==_3),fakeAcc=(1_==_4),fakePos=(1_==_2)-
attr leaderHeadway 1.2
attr leaderSpeed 80
attr measurement "$leaderSpeed=80, $controller=1, $CACCSpacing=11, $sController=\"CACC\", $attacker=1, $attackStart=30, $attackSpeed=150, $attackPos=7, $attackAcc=-30, $0=11, $1=0, $nCars=8, $platoonSize=8, $nLanes=1, $beaconInterval=0.1, $priority=2, $packetSize=200, $ploegH=0.5, $leaderHeadway=1.2, $fakeSpeed=(1 == 3), $fakeAcc=(1 == 4), $fakePos=(1 == 2)"
attr nCars 8
attr nLanes 1
attr network scenario
attr packetSize 200
attr platoonSize 8
attr ploegH 0.5
attr priority 2
attr processid 93091
attr repetition 1
attr replication #1
attr resultdir results
attr runnumber 241
attr sController "\"CACC\""
attr seedset 1
param **.coreDebug false
param **.debug false
param **.headway 0.1s
param **.numberOfCars 8
param **.numberOfCarsPerPlatoon 8
param **.numberOfLanes 1
param **.numericController 1
param **.traffic.nCars 8
param **.traffic.nLanes 1
param **.traffic.platoonInsertDistance 11m
param **.traffic.platoonInsertHeadway 0s
param **.traffic.platoonInsertSpeed 80kmph
param **.traffic.platoonInsertTime "1 s"
param **.traffic.platoonLeaderHeadway 1.2s
param **.traffic.platoonSize 8
param **.traffic.platooningVType "\"vtypeauto\""
param **.traffic_type "\"PlatoonsTrafficManager\""
param *.**.nic.mac1609_4.bitrate 6Mbps
param *.**.nic.mac1609_4.txPower 100mW
param *.**.nic.mac1609_4.useServiceChannel false
param *.**.nic.phy80211p.analogueModels "xmldoc(\"config.xml\")"
param *.**.nic.phy80211p.decider "xmldoc(\"config.xml\")"
param *.**.nic.phy80211p.maxTXPower 100mW
param *.**.nic.phy80211p.sensitivity -94dBm
param *.**.nic.phy80211p.thermalNoise -95dBm
param *.**.nic.phy80211p.usePropagationDelay true
param *.**.nic.phy80211p.useThermalNoise true
param *.annotations.draw false
param *.connectionManager.alpha 2.0
param *.connectionManager.carrierFrequency "5.890e9 Hz"
param *.connectionManager.pMax 100mW
param *.connectionManager.sat -94dBm
param *.connectionManager.sendDirect true
param *.manager.autoShutdown true
param *.manager.commandLine "\"sumo --remote-port $port --seed $seed --configuration-file $configFile\""
param *.manager.configFile "\"./sumocfg/freeway.sumo.cfg\""
param *.manager.host "\"localhost\""
param *.manager.margin 25
param *.manager.moduleDisplayString "\"\""
param *.manager.moduleName "\"node\""
param *.manager.moduleType "\"Car\""
param *.manager.updateInterval 0.01s
param *.node[*].appl.attackStart 30s
param *.node[*].appl.attackerType 1
param *.node[*].appl.simulationDuration "60 s"
param *.node[*].appl_type "\"SimplePlatooningApp\""
param *.node[*].helper.nCars 8
param *.node[*].helper.nLanes 1
param *.node[*].helper.platoonSize 8
param *.node[*].helper_type "\"PositionHelper\""
param *.node[*].mobility.x 0
param *.node[*].mobility.y 0
param *.node[*].mobility.z 1.895
param *.node[*].prot.attackStart 30s
param *.node[*].prot.attackerType 1
param *.node[*].prot.attackingNode 3
param *.node[*].prot.beaconingInterval 0.1s
param *.node[*].prot.fakeAcc "(1 == 4)"
param *.node[*].prot.fakePos "(1 == 2)"
param *.node[*].prot.fakeSpeed "(1 == 3)"
param *.node[*].prot.maliciousAcc "-30 mpss"
param *.node[*].prot.maliciousSpeed 150kmph
param *.node[*].prot.packetSize 200
param *.node[*].prot.priority 2
param *.node[*].prot.shiftX "7 m"
param *.node[*].prot.useControllerAcceleration true
param *.node[*].protocol_type "\"SimplePlatooningBeaconing\""
param *.node[*].scenario.accHeadway 0.1s
param *.node[*].scenario.caccC1 0.5
param *.node[*].scenario.caccOmegaN "0.2 Hz"
param *.node[*].scenario.caccSpacing 11m
param *.node[*].scenario.caccXi 1
param *.node[*].scenario.controller "\"CACC\""
param *.node[*].scenario.engineTau "0.5 s"
param *.node[*].scenario.leaderHeadway 1.2s
param *.node[*].scenario.leaderOscillationFrequency "0.2 Hz"
param *.node[*].scenario.leaderSpeed 80kmph
param *.node[*].scenario.oscillationAmplitude "10 kmph"
param *.node[*].scenario.ploegH 0.5s
param *.node[*].scenario.ploegKd 0.7
param *.node[*].scenario.ploegKp 0.2
param *.node[*].scenario.startOscillating "5 s"
param *.node[*].scenario.useRealisticEngine false
param *.node[*].scenario_type "\"SinusoidalScenario\""
param *.node[*].unicast.packetLossRate 0
param *.obstacles.debug false
param *.playgroundSizeX 65000m
param *.playgroundSizeY 25000m
param *.playgroundSizeZ 50m
param *.world.use2D false
param *.world.useTorus false

vector 0  scenario.node[0].appl  distance  ETV
vector 1  scenario.node[0].appl  relativeSpeed  ETV
vector 2  scenario.node[0].appl  nodeId  ETV
vector 6  scenario.node[0].appl  acceleration  ETV
vector 7  scenario.node[0].appl  controllerAcceleration  ETV
vector 3  scenario.node[0].appl  speed  ETV
vector 4  scenario.node[0].appl  posx  ETV
vector 5  scenario.node[0].appl  posy  ETV
vector 22  scenario.node[1].appl  distance  ETV
vector 23  scenario.node[1].appl  relativeSpeed  ETV
vector 24  scenario.node[1].appl  nodeId  ETV
vector 28  scenario.node[1].appl  acceleration  ETV
vector 29  scenario.node[1].appl  controllerAcceleration  ETV
vector 25  scenario.node[1].appl  speed  ETV
vector 26  scenario.node[1].appl  posx  ETV
vector 27  scenario.node[1].appl  posy  ETV
vector 44  scenario.node[2].appl  distance  ETV
vector 45  scenario.node[2].appl  relativeSpeed  ETV
vector 46  scenario.node[2].appl  nodeId  ETV
vector 50  scenario.node[2].appl  acceleration  ETV
vector 51  scenario.node[2].appl  controllerAcceleration  ETV
vector 47  scenario.node[2].appl  speed  ETV
vector 48  scenario.node[2].appl  posx  ETV
vector 49  scenario.node[2].appl  posy  ETV
vector 66  scenario.node[3].appl  distance  ETV
vector 67  scenario.node[3].appl  relativeSpeed  ETV
vector 68  scenario.node[3].appl  nodeId  ETV
vector 72  scenario.node[3].appl  acceleration  ETV
vector 73  scenario.node[3].appl  controllerAcceleration  ETV
vector 69  scenario.node[3].appl  speed  ETV
vector 70  scenario.node[3].appl  posx  ETV
vector 71  scenario.node[3].appl  posy  ETV
vector 88  scenario.node[4].appl  distance  ETV
vector 89  scenario.node[4].appl  relativeSpeed  ETV
vector 90  scenario.node[4].appl  nodeId  ETV
vector 94  scenario.node[4].appl  acceleration  ETV
vector 95  scenario.node[4].appl  controllerAcceleration  ETV
vector 91  scenario.node[4].appl  speed  ETV
vector 92  scenario.node[4].appl  posx  ETV
vector 93  scenario.node[4].appl  posy  ETV
vector 110  scenario.node[5].appl  distance  ETV
vector 111  scenario.node[5].appl  relativeSpeed  ETV
vector 112  scenario.node[5].appl  nodeId  ETV
vector 116  scenario.node[5].appl  acceleration  ETV
vector 117  scenario.node[5].appl  controllerAcceleration  ETV
vector 113  scenario.node[5].appl  speed  ETV
vector 114  scenario.node[5].appl  posx  ETV
vector 115  scenario.node[5].appl  posy  ETV
vector 132  scenario.node[6].appl  distance  ETV
vector 133  scenario.node[6].appl  relativeSpeed  ETV
vector 134  scenario.node[6].appl  nodeId  ETV
vector 138  scenario.node[6].appl  acceleration  ETV
vector 139  scenario.node[6].appl  controllerAcceleration  ETV
vector 135  scenario.node[6].appl  speed  ETV
vector 136  scenario.node[6].appl  posx  ETV
vector 137  scenario.node[6].appl  posy  ETV
vector 154  scenario.node[7].appl  distance  ETV
vector 155  scenario.node[7].appl  relativeSpeed  ETV
vector 156  scenario.node[7].appl  nodeId  ETV
vector 160  scenario.node[7].appl  acceleration  ETV
vector 161  scenario.node[7].appl  controllerAcceleration  ETV
vector 157  scenario.node[7].appl  speed  ETV
vector 158  scenario.node[7].appl  posx  ETV
vector 159  scenario.node[7].appl  posy  ETV
vector 58  scenario.node[2].prot  frontDelay  ETV
vector 56  scenario.node[2].prot  frontDelayId  ETV
vector 102  scenario.node[4].prot  frontDelay  ETV
vector 100  scenario.node[4].prot  frontDelayId  ETV
vector 146  scenario.node[6].prot  frontDelay  ETV
vector 144  scenario.node[6].prot  frontDelayId  ETV
vector 168  scenario.node[7].prot  frontDelay  ETV
vector 166  scenario.node[7].prot  frontDelayId  ETV
vector 124  scenario.node[5].prot  frontDelay  ETV
vector 122  scenario.node[5].prot  frontDelayId  ETV
vector 35  scenario.node[1].prot  leaderDelay  ETV
vector 33  scenario.node[1].prot  leaderDelayId  ETV
vector 36  scenario.node[1].prot  frontDelay  ETV
vector 34  scenario.node[1].prot  frontDelayId  ETV
vector 57  scenario.node[2].prot  leaderDelay  ETV
vector 55  scenario.node[2].prot  leaderDelayId  ETV
vector 79  scenario.node[3].prot  leaderDelay  ETV
vector 77  scenario.node[3].prot  leaderDelayId  ETV
vector 101  scenario.node[4].prot  leaderDelay  ETV
vector 99  scenario.node[4].prot  leaderDelayId  ETV
vector 123  scenario.node[5].prot  leaderDelay  ETV
vector 121  scenario.node[5].prot  leaderDelayId  ETV
vector 145  scenario.node[6].prot  leaderDelay  ETV
vector 143  scenario.node[6].prot  leaderDelayId  ETV
vector 167  scenario.node[7].prot  leaderDelay  ETV
vector 165  scenario.node[7].prot  leaderDelayId  ETV
vector 80  scenario.node[3].prot  frontDelay  ETV
vector 78  scenario.node[3].prot  frontDelayId  ETV
vector 8  scenario.node[0].prot  nodeId  ETV
vector 9  scenario.node[0].prot  busyTime  ETV
vector 10  scenario.node[0].prot  collisions  ETV
vector 30  scenario.node[1].prot  nodeId  ETV
vector 31  scenario.node[1].prot  busyTime  ETV
vector 32  scenario.node[1].prot  collisions  ETV
vector 52  scenario.node[2].prot  nodeId  ETV
vector 53  scenario.node[2].prot  busyTime  ETV
vector 54  scenario.node[2].prot  collisions  ETV
vector 74  scenario.node[3].prot  nodeId  ETV
vector 75  scenario.node[3].prot  busyTime  ETV
vector 76  scenario.node[3].prot  collisions  ETV
vector 96  scenario.node[4].prot  nodeId  ETV
vector 97  scenario.node[4].prot  busyTime  ETV
vector 98  scenario.node[4].prot  collisions  ETV
vector 118  scenario.node[5].prot  nodeId  ETV
vector 119  scenario.node[5].prot  busyTime  ETV
vector 120  scenario.node[5].prot  collisions  ETV
vector 140  scenario.node[6].prot  nodeId  ETV
vector 141  scenario.node[6].prot  busyTime  ETV
vector 142  scenario.node[6].prot  collisions  ETV
vector 162  scenario.node[7].prot  nodeId  ETV
vector 163  scenario.node[7].prot  busyTime  ETV
vector 164  scenario.node[7].prot  collisions  ETV
7	232	1.11	8.430731206488e-07
7	788	1.21	8.247038785214e-07
7	1344	1.31	7.948429328053e-07
7	1900	1.41	7.5609037608615e-07
7	2456	1.51	7.1073863239235e-07
7	3012	1.61	6.6078666094427e-07
7	3568	1.71	6.079568990458e-07
7	4124	1.81	5.5371389606762e-07
7	4680	1.91	4.9928438983216e-07
7	5244	2.01	4.4567811841034e-07
7	5800	2.11	3.9370868165634e-07
7	6356	2.21	3.4401411852514e-07
7	6912	2.31	2.9707706872273e-07
7	7468	2.41	2.5324398578164e-07
7	8024	2.51	2.1274344064182e-07
7	8580	2.61	1.7570315336002e-07
7	9136	2.71	1.4216582755466e-07
7	9692	2.81	1.1210364547765e-07
7	10248	2.91	8.5431519636359e-08
7	10812	3.01	6.2018816748832e-08
7	11368	3.11	4.1699859565369e-08
7	11924	3.21	2.4283316690799e-08
7	12480	3.31	9.5601571103998e-09
7	13036	3.41	-2.6894362292751e-09
7	13592	3.51	-1.2690140493987e-08
7	14148	3.61	-2.0666576006079e-08
7	14704	3.71	-2.6839355626862e-08
7	15260	3.81	-3.1421798496467e-08
7	15816	3.91	-3.4617407607129e-08
7	16380	4.01	-3.6617997523081e-08
7	16936	4.11	-3.7602347902066e-08
7	17492	4.21	-3.7735404134764e-08
7	18048	4.31	-3.7167730226884e-08
7	18604	4.41	-3.6035434192172e-08
7	19160	4.51	-3.446024621212e-08
7	19716	4.61	-3.2549973383311e-08
7	20272	4.71	-3.0399071704323e-08
7	20828	4.81	-2.8089345960325e-08
7	21384	4.91	-2.5690727767369e-08
7	21949	5.01	-2.326218861981e-08
7	22506	5.11	0.34814785015927
7	23063	5.21	0.68726933461214
7	23620	5.31	1.0064705986278
7	24177	5.41	1.2963311417008
7	24734	5.51	1.5
7	25291	5.61	1.5
7	25848	5.71	1.5
7	26405	5.81	1.5
7	26962	5.91	1.5
7	27527	6.01	1.5
7	28084	6.11	1.5
7	28641	6.21	1.5
7	29198	6.31	1.5
7	29755	6.41	1.5
7	30312	6.51	1.49192340766
7	30869	6.61	1.22649932262
7	31426	6.71	0.92305383478006
7	31983	6.81	0.58908101519542
7	32540	6.91	0.23235621239028
7	33105	7.01	-0.13919560128961
7	33662	7.11	-0.5176284684353
7	34219	7.21	-0.89509994168449
7	34776	7.31	-1.2639902903501
7	35333	7.41	-1.5
7	35890	7.51	-1.5
7	36447	7.61	-1.5
7	37004	7.71	-1.5
7	37561	7.81	-1.5
7	38118	7.91	-1.5
7	38683	8.01	-1.5
7	39240	8.11	-1.5
7	39797	8.21	-1.5
7	40354	8.31	-1.5
7	40911	8.41	-1.5
7	41468	8.51	-1.5
7	42025	8.61	-1.5
7	42582	8.71	-1.5
7	43139	8.81	-1.5
7	43696	8.91	-1.5
7	44261	9.01	-1.5
7	44818	9.11	-1.5
7	45375	9.21	-1.5
7	45932	9.31	-1.5
7	46489	9.41	-1.5
7	47046	9.51	-1.1784535907027
7	47603	9.61	-0.73985166445766
7	48160	9.71	-0.29046662083969
7	48717	9.81	0.158682056465
7	49274	9.91	0.59737147669388
7	49839	10.01	1.0162504339893
7	50396	10.11	1.4069035497099
7	50953	10.21	1.5
7	51510	10.31	1.5
7	52067	10.41	1.5
7	52624	10.51	1.5
7	53181	10.61	1.5
7	53738	10.71	1.5
7	54295	10.81	1.5
7	54852	10.91	1.5
7	55417	11.01	1.5
7	55974	11.11	1.5
7	56531	11.21	1.5
7	57088	11.31	1.5
7	57645	11.41	1.5
7	58202	11.51	1.5
7	58759	11.61	1.5
7	59316	11.71	1.5
7	59873	11.81	1.5
7	60430	11.91	1.1420569522637
7	60995	12.01	0.73271074167055
7	61552	12.11	0.3076349169641
7	62109	12.21	-0.12290183406852
7	62666	12.31	-0.54917422870931
7	63223	12.41	-0.96209331721755
7	63780	12.51	-1.3532900275778
7	64337	12.61	-1.5
7	64894	12.71	-1.5
7	65451	12.81	-1.5
7	66008	12.91	-1.5
7	66573	13.01	-1.5
7	67130	13.11	-1.5
7	67687	13.21	-1.5
7	68244	13.31	-1.5
7	68801	13.41	-1.5
7	69358	13.51	-1.5
7	69915	13.61	-1.5
7	70472	13.71	-1.5
7	71029	13.81	-1.5
7	71586	13.91	-1.5
7	72151	14.01	-1.5
7	72708	14.11	-1.5
7	73265	14.21	-1.5
7	73822	14.31	-1.5
7	74379	14.41	-1.3008305793368
7	74936	14.51	-0.88835736023102
7	75493	14.61	-0.45792464376746
7	76050	14.71	-0.020297800498863
7	76607	14.81	0.41435934755698
7	77164	14.91	0.83657487483132
7	77729	15.01	1.2376491838803
7	78286	15.11	1.5
7	78843	15.21	1.5
7	79400	15.31	1.5
7	79957	15.41	1.5
7	80514	15.51	1.5
7	81071	15.61	1.5
7	81628	15.71	1.5
7	82185	15.81	1.5
7	82742	15.91	1.5
7	83307	16.01	1.5
7	83864	16.11	1.5
7	84421	16.21	1.5
7	84978	16.31	1.5
7	85535	16.41	1.5
7	86092	16.51	1.5
7	86649	16.61	1.5
7	87206	16.71	1.5
7	87763	16.81	1.5
7	88320	16.91	1.2451238477314
7	88885	17.01	0.83347870134691
7	89442	17.11	0.40470958876234
7	89999	17.21	-0.03059806222544
7	90556	17.31	-0.46243980387284
7	91113	17.41	-0.88148335305215
7	91670	17.51	-1.2791500631777
7	92227	17.61	-1.5
7	92784	17.71	-1.5
7	93341	17.81	-1.5
7	93898	17.91	-1.5
7	94463	18.01	-1.5
7	95020	18.11	-1.5
7	95577	18.21	-1.5
7	96134	18.31	-1.5
7	96691	18.41	-1.5
7	97248	18.51	-1.5
7	97805	18.61	-1.5
7	98362	18.71	-1.5
7	98919	18.81	-1.5
7	99476	18.91	-1.5
7	100041	19.01	-1.5
7	100598	19.11	-1.5
7	101155	19.21	-1.5
7	101712	19.31	-1.5
7	102269	19.41	-1.2657245815164
7	102826	19.51	-0.85377693481871
7	103383	19.61	-0.4243956003844
7	103940	19.71	0.011767371264867
7	104497	19.81	0.44464851836084
7	105054	19.91	0.86486384400239
7	105619	20.01	1.2637899041101
7	106176	20.11	1.5
7	106733	20.21	1.5
7	107290	20.31	1.5
7	107847	20.41	1.5
7	108404	20.51	1.5
7	108961	20.61	1.5
7	109518	20.71	1.5
7	110075	20.81	1.5
7	110632	20.91	1.5
7	111197	21.01	1.5
7	111754	21.11	1.5
7	112311	21.21	1.5
7	112868	21.31	1.5
7	113425	21.41	1.5
7	113982	21.51	1.5
7	114539	21.61	1.5
7	115096	21.71	1.5
7	115653	21.81	1.5
7	116210	21.91	1.2580915517753
7	116775	22.01	0.84625491634726
7	117332	22.11	0.41709956367407
7	117889	22.21	-0.018747163543662
7	118446	22.31	-0.45124369149508
7	119003	22.41	-0.87102520538678
7	119560	22.51	-1.2694848794604
7	120117	22.61	-1.5
7	120674	22.71	-1.5
7	121231	22.81	-1.5
7	121788	22.91	-1.5
7	122353	23.01	-1.5
7	122910	23.11	-1.5
7	123467	23.21	-1.5
7	124024	23.31	-1.5
7	124581	23.41	-1.5
7	125138	23.51	-1.5
7	125695	23.61	-1.5
7	126252	23.71	-1.5
7	126809	23.81	-1.5
7	127366	23.91	-1.5
7	127931	24.01	-1.5
7	128488	24.11	-1.5
7	129045	24.21	-1.5
7	129602	24.31	-1.5
7	130159	24.41	-1.2609239651119
7	130716	24.51	-0.84904615684549
7	131273	24.61	-0.41980696481121
7	131830	24.71	0.016157099446048
7	132387	24.81	0.44879633966007
7	132944	24.91	0.86873882266865
7	133509	25.01	1.2673715557193
7	134066	25.11	1.5
7	134623	25.21	1.5
7	135180	25.31	1.5
7	135737	25.41	1.5
7	136294	25.51	1.5
7	136851	25.61	1.5
7	137408	25.71	1.5
7	137965	25.81	1.5
7	138522	25.91	1.5
7	139087	26.01	1.5
7	139644	26.11	1.5
7	140201	26.21	1.5
7	140758	26.31	1.5
7	141315	26.41	1.5
7	141872	26.51	1.5
7	142429	26.61	1.5
7	142986	26.71	1.5
7	143543	26.81	1.5
7	144100	26.91	1.2598728518627
7	144665	27.01	0.84801032251372
7	145222	27.11	0.41880224309083
7	145779	27.21	-0.017118277442513
7	146336	27.31	-0.44970455708465
7	146893	27.41	-0.86958730431945
7	147450	27.51	-1.2681558149833
7	148007	27.61	-1.5
7	148564	27.71	-1.5
7	149121	27.81	-1.5
7	149678	27.91	-1.5
7	150243	28.01	-1.5
7	150800	28.11	-1.5
7	151357	28.21	-1.5
7	151914	28.31	-1.5
7	152471	28.41	-1.5
7	153028	28.51	-1.5
7	153585	28.61	-1.5
7	154142	28.71	-1.5
7	154699	28.81	-1.5
7	155256	28.91	-1.5
7	155821	29.01	-1.5
7	156378	29.11	-1.5
7	156935	29.21	-1.5
7	157492	29.31	-1.5
7	158049	29.41	-1.2602629232518
7	158606	29.51	-0.84839472385647
7	159163	29.61	-0.41917509845289
7	159720	29.71	0.016761581286932
7	160277	29.81	0.44936751475819
7	160834	29.91	0.86927243012153
7	161399	30.01	1.2678647739108
7	161956	30.11	1.5
7	162513	30.21	1.5
7	163070	30.31	1.5
7	163627	30.41	1.5
7	164184	30.51	1.5
7	164741	30.61	1.5
7	165298	30.71	1.5
7	165855	30.81	1.5
7	166412	30.91	1.5
7	166977	31.01	1.5
7	167534	31.11	1.5
7	168091	31.21	1.5
7	168648	31.31	1.5
7	169205	31.41	1.5
7	169762	31.51	1.5
7	170319	31.61	1.5
7	170876	31.71	1.5
7	171433	31.81	1.5
7	171990	31.91	1.2601181665206
7	172555	32.01	0.84825207129739
7	173112	32.11	0.41903673064385
7	173669	32.21	-0.016893952363201
7	174226	32.31	-0.44949259223613
7	174783	32.41	-0.8693892809366
7	175340	32.51	-1.2679727801774
7	175897	32.61	-1.5
7	176454	32.71	-1.5
7	177011	32.81	-1.5
7	177568	32.91	-1.5
7	178133	33.01	-1.5
7	178690	33.11	-1.5
7	179247	33.21	-1.5
7	179804	33.31	-1.5
7	180361	33.41	-1.5
7	180918	33.51	-1.5
7	181475	33.61	-1.5
7	182032	33.71	-1.5
7	182589	33.81	-1.5
7	183146	33.91	-1.5
7	183711	34.01	-1.5
7	184268	34.11	-1.5
7	184825	34.21	-1.5
7	185382	34.31	-1.5
7	185939	34.41	-1.2601718862039
7	186496	34.51	-0.84830501011572
7	187053	34.61	-0.41908807937784
7	187610	34.71	0.016844829035751
7	188167	34.81	0.44944617558619
7	188724	34.91	0.86934591722748
7	189289	35.01	1.2679326987084
7	189846	35.11	1.5
7	190403	35.21	1.5
7	190960	35.31	1.5
7	191517	35.41	1.5
7	192074	35.51	1.5
7	192631	35.61	1.5
7	193188	35.71	1.5
7	193745	35.81	1.5
7	194302	35.91	1.5
7	194867	36.01	1.5
7	195424	36.11	1.5
7	195981	36.21	1.5
7	196538	36.31	1.5
7	197095	36.41	1.5
7	197652	36.51	1.5
7	198209	36.61	1.5
7	198766	36.71	1.5
7	199323	36.81	1.5
7	199880	36.91	1.2601519506571
7	200445	37.01	0.84828536435041
7	201002	37.11	0.41906902369789
7	201559	37.21	-0.016863058860206
7	202116	37.31	-0.4494634009539
7	202673	37.41	-0.86936200963903
7	203230	37.51	-1.2679475730701
7	203787	37.61	-1.5
7	204344	37.71	-1.5
7	204901	37.81	-1.5
7	205458	37.91	-1.5
7	206023	38.01	-1.5
7	206580	38.11	-1.5
7	207137	38.21	-1.5
7	207694	38.31	-1.5
7	208251	38.41	-1.5
7	208808	38.51	-1.5
7	209365	38.61	-1.5
7	209922	38.71	-1.5
7	210479	38.81	-1.5
7	211036	38.91	-1.5
7	211601	39.01	-1.5
7	212158	39.11	-1.5
7	212715	39.21	-1.5
7	213272	39.31	-1.5
7	213829	39.41	-1.2601593488036
7	214386	39.51	-0.84829265495815
7	214943	39.61	-0.4190760953231
7	215500	39.71	0.016856293712618
7	216057	39.81	0.4494570085635
7	216614	39.91	0.86935603769236
7	217179	40.01	1.2679420531457
7	217736	40.11	1.5
7	218293	40.21	1.5
7	218850	40.31	1.5
7	219407	40.41	1.5
7	219964	40.51	1.5
7	220521	40.61	1.5
7	221078	40.71	1.5
7	221635	40.81	1.5
7	222192	40.91	1.5
7	222757	41.01	1.5
7	223314	41.11	1.5
7	223871	41.21	1.5
7	224428	41.31	1.5
7	224985	41.41	1.5
7	225542	41.51	1.5
7	226099	41.61	1.5
7	226656	41.71	1.5
7	227213	41.81	1.5
7	227770	41.91	1.2601566033284
7	228335	42.01	0.84828994939089
7	228892	42.11	0.41907347102095
7	229449	42.21	-0.016858804279924
7	230006	42.31	-0.4494593807994
7	230563	42.41	-0.86935825390022
7	231120	42.51	-1.2679441016066
7	231677	42.61	-1.5
7	232234	42.71	-1.5
7	232791	42.81	-1.5
7	233348	42.91	-1.5
7	233913	43.01	-1.5
7	234470	43.11	-1.5
7	235027	43.21	-1.5
7	235584	43.31	-1.5
7	236141	43.41	-1.5
7	236698	43.51	-1.5
7	237255	43.61	-1.5
7	237812	43.71	-1.5
7	238369	43.81	-1.5
7	238926	43.91	-1.5
7	239491	44.01	-1.5
7	240048	44.11	-1.5
7	240605	44.21	-1.5
7	241162	44.31	-1.5
7	241719	44.41	-1.2601576221816
7	242276	44.51	-0.84829095343409
7	242833	44.61	-0.41907444490639
7	243390	44.71	0.016857872601843
7	243947	44.81	0.44945850045652
7	244504	44.91	0.86935743145974
7	245069	45.01	1.2679433414174
7	245626	45.11	1.5
7	246183	45.21	1.5
7	246740	45.31	1.5
7	247297	45.41	1.5
7	247854	45.51	1.5
7	248411	45.61	1.5
7	248968	45.71	1.5
7	249525	45.81	1.5
7	250082	45.91	1.5
7	250647	46.01	1.5
7	251204	46.11	1.5
7	251761	46.21	1.5
7	252318	46.31	1.5
7	252875	46.41	1.5
7	253432	46.51	1.5
7	253989	46.61	1.5
7	254546	46.71	1.5
7	255103	46.81	1.5
7	255660	46.91	1.2601572440827
7	256225	47.01	0.84829058083129
7	256782	47.11	0.41907408349525
7	257339	47.21	-0.016858218349732
7	257896	47.31	-0.44945882715384
7	258453	47.41	-0.86935773666943
7	259010	47.51	-1.2679436235256
7	259567	47.61	-1.5
7	260124	47.71	-1.5
7	260681	47.81	-1.5
7	261238	47.91	-1.5
7	261803	48.01	-1.5
7	262360	48.11	-1.5
7	262917	48.21	-1.5
7	263474	48.31	-1.5
7	264031	48.41	-1.5
7	264588	48.51	-1.5
7	265145	48.61	-1.5
7	265702	48.71	-1.5
7	266259	48.81	-1.5
7	266816	48.91	-1.5
7	267381	49.01	-1.5
7	267938	49.11	-1.5
7	268495	49.21	-1.5
7	269052	49.31	-1.5
7	269609	49.41	-1.2601573843952
7	270166	49.51	-0.84829071910411
7	270723	49.61	-0.41907421761477
7	271280	49.71	0.016858090042899
7	271837	49.81	0.44945870591672
7	272394	49.91	0.86935762340638
7	272959	50.01	1.2679435188356
7	273516	50.11	1.5
7	274073	50.21	1.5
7	274630	50.31	1.5
7	275187	50.41	1.5
7	275744	50.51	1.5
7	276301	50.61	1.5
7	276858	50.71	1.5
7	277415	50.81	1.5
7	277972	50.91	1.5
7	278537	51.01	1.5
7	279094	51.11	1.5
7	279651	51.21	1.5
7	280208	51.31	1.5
7	280765	51.41	1.5
7	281322	51.51	1.5
7	281879	51.61	1.5
7	282436	51.71	1.5
7	282993	51.81	1.5
7	283550	51.91	1.2601573323257
7	284115	52.01	0.84829066779152
7	284672	52.11	0.41907416784349
7	285229	52.21	-0.016858137657085
7	285786	52.31	-0.44945875090737
7	286343	52.41	-0.86935766543788
7	286900	52.51	-1.2679435576857
7	287457	52.61	-1.5
7	288014	52.71	-1.5
7	288571	52.81	-1.5
7	289128	52.91	-1.5
7	289693	53.01	-1.5
7	290250	53.11	-1.5
7	290807	53.21	-1.5
7	291364	53.31	-1.5
7	291921	53.41	-1.5
7	292478	53.51	-1.5
7	293035	53.61	-1.5
7	293592	53.71	-1.5
7	294149	53.81	-1.5
7	294706	53.91	-1.5
7	295271	54.01	-1.5
7	295828	54.11	-1.5
7	296385	54.21	-1.5
7	296942	54.31	-1.5
7	297499	54.41	-1.2601573516497
7	298056	54.51	-0.8482906868347
7	298613	54.61	-0.41907418631469
7	299170	54.71	0.016858119986384
7	299727	54.81	0.44945873421026
7	300284	54.91	0.86935764983889
7	300849	55.01	1.2679435432672
7	301406	55.11	1.5
7	301963	55.21	1.5
7	302520	55.31	1.5
7	303077	55.41	1.5
7	303634	55.51	1.5
7	304191	55.61	1.5
7	304748	55.71	1.5
7	305305	55.81	1.5
7	305862	55.91	1.5
7	306427	56.01	1.5
7	306984	56.11	1.5
7	307541	56.21	1.5
7	308098	56.31	1.5
7	308655	56.41	1.5
7	309212	56.51	1.5
7	309769	56.61	1.5
7	310326	56.71	1.5
7	310883	56.81	1.5
7	311440	56.91	1.2601573444777
7	312005	57.01	0.84829067976691
7	312562	57.11	0.41907417945924
7	313119	57.21	-0.016858126544712
7	313676	57.31	-0.44945874040717
7	314233	57.41	-0.86935765562825
7	314790	57.51	-1.2679435486185
7	315347	57.61	-1.5
7	315904	57.71	-1.5
7	316461	57.81	-1.5
7	317018	57.91	-1.5
7	317583	58.01	-1.5
7	318140	58.11	-1.5
7	318697	58.21	-1.5
7	319254	58.31	-1.5
7	319811	58.41	-1.5
7	320368	58.51	-1.5
7	320925	58.61	-1.5
7	321482	58.71	-1.5
7	322039	58.81	-1.5
7	322596	58.91	-1.5
7	323161	59.01	-1.5
7	323718	59.11	-1.5
7	324275	59.21	-1.5
7	324832	59.31	-1.5
7	325389	59.41	-1.2601573471393
7	325946	59.51	-0.84829068238978
7	326503	59.61	-0.41907418200329
7	327060	59.71	0.016858124110932
7	327617	59.81	0.44945873810752
7	328174	59.91	0.8693576534799
6	232	1.11	1.2391545567425e-07
6	788	1.21	2.514333630188e-07
6	1344	1.31	3.5153284727585e-07
6	1900	1.41	4.2734420446777e-07
6	2456	1.51	4.8187125401e-07
6	3012	1.61	5.1795971955926e-07
6	3568	1.71	5.3827413637464e-07
6	4124	1.81	5.4528506154838e-07
6	4680	1.91	5.4125663950799e-07
6	5244	2.01	5.2824375984528e-07
6	5800	2.11	5.080941889446e-07
6	6356	2.21	4.8245141215375e-07
6	6912	2.31	4.5276244975412e-07
6	7468	2.41	4.202860282021e-07
6	8024	2.51	3.8610643571246e-07
6	8580	2.61	3.5114133822844e-07
6	9136	2.71	3.1616025353287e-07
6	9692	2.81	2.8179307776099e-07
6	10248	2.91	2.4854536206931e-07
6	10812	3.01	2.1681287876163e-07
6	11368	3.11	1.8689298997288e-07
6	11924	3.21	1.5899530581009e-07
6	12480	3.31	1.3325838210676e-07
6	13036	3.41	1.0975469422192e-07
6	13592	3.51	8.8505203166278e-08
6	14148	3.61	6.948575048682e-08
6	14704	3.71	5.263665059374e-08
6	15260	3.81	3.7870506730542e-08
6	15816	3.91	2.5077895315917e-08
6	16380	4.01	1.4133405557004e-08
6	16936	4.11	4.9016790626411e-09
6	17492	4.21	-2.7593927143243e-09
6	18048	4.31	-8.9940499492513e-09
6	18604	4.41	-1.3947598631603e-08
6	19160	4.51	-1.7761081494427e-08
6	19716	4.61	-2.0570567471623e-08
6	20272	4.71	-2.2507151697937e-08
6	20828	4.81	-2.3691626438449e-08
6	21384	4.91	-2.4239099616352e-08
6	21949	5.01	-2.4253310471067e-08
6	22506	5.11	0.0068264050138822
6	23063	5.21	0.074594790622484
6	23620	5.31	0.19005130280156
6	24177	5.41	0.34050268492081
6	24734	5.51	0.51301635125718
6	25291	5.61	0.69025455388463
6	25848	5.71	0.83572669994751
6	26405	5.81	0.95506452764909
6	26962	5.91	1.0529631117155
6	27527	6.01	1.1332740487145
6	28084	6.11	1.1991569893425
6	28641	6.21	1.2532039476781
6	29198	6.31	1.2975412780619
6	29755	6.41	1.3339133316631
6	30312	6.51	1.3635927194422
6	30869	6.61	1.3702053558546
6	31426	6.71	1.3272611868377
6	31983	6.81	1.2373810863703
6	32540	6.91	1.10404336986
6	33105	7.01	0.93147091462953
6	33662	7.11	0.72451590042988
6	34219	7.21	0.48854317855174
6	34776	7.31	0.22931329168649
6	35333	7.41	-0.044839402561792
6	35890	7.51	-0.30626147784645
6	36447	7.61	-0.52071863285548
6	37004	7.71	-0.69664819536399
6	37561	7.81	-0.84097171286572
6	38118	7.91	-0.95936726507979
6	38683	8.01	-1.0564928550515
6	39240	8.11	-1.1361696676595
6	39797	8.21	-1.2015324054218
6	40354	8.31	-1.2551526162195
6	40911	8.41	-1.299139864987
6	41468	8.51	-1.3352247297291
6	42025	8.61	-1.3648268871716
6	42582	8.71	-1.3891109667025
6	43139	8.81	-1.40903237006
6	43696	8.91	-1.4253748594349
6	44261	9.01	-1.4387813928092
6	44818	9.11	-1.4497794196703
6	45375	9.21	-1.4588016323081
6	45932	9.31	-1.466202989106
6	46489	9.41	-1.4722746795719
6	47046	9.51	-1.4696249147679
6	47603	9.61	-1.3967850640324
6	48160	9.71	-1.2587757642699
6	48717	9.81	-1.066095221946
6	49274	9.91	-0.8292333503487
6	49839	10.01	-0.55852907850635
6	50396	10.11	-0.26404116086489
6	50953	10.21	0.039432698568831
6	51510	10.31	0.30182609741765
6	52067	10.41	0.51708007606237
6	52624	10.51	0.69366331148437
6	53181	10.61	0.83852306844925
6	53738	10.71	0.9573585237959
6	54295	10.81	1.0548449875539
6	54852	10.91	1.1348178423589
6	55417	11.01	1.2004234378345
6	55974	11.11	1.2542428765453
6	56531	11.21	1.2983935615914
6	57088	11.31	1.3346125010074
6	57645	11.41	1.3643246463804
6	58202	11.51	1.3886989543238
6	58759	11.61	1.4086943764056
6	59316	11.71	1.425097586916
6	59873	11.81	1.4385539327701
6	60430	11.91	1.4345627372659
6	60995	12.01	1.3623449188493
6	61552	12.11	1.2299875654136
6	62109	12.21	1.046144839739
6	62666	12.31	0.81967864244703
6	63223	12.41	0.55952045900121
6	63780	12.51	0.27454262944673
6	64337	12.61	-0.022341644921298
6	64894	12.71	-0.28780548061533
6	65451	12.81	-0.50557828690501
6	66008	12.91	-0.68422783830435
6	66573	13.01	-0.83078269406727
6	67130	13.11	-0.95100872083052
6	67687	13.21	-1.0496359374866
6	68244	13.31	-1.1305446069922
6	68801	13.41	-1.1969178964666
6	69358	13.51	-1.2513671116437
6	69915	13.61	-1.2960344327443
6	70472	13.71	-1.3326771936686
6	71029	13.81	-1.3627370202961
6	71586	13.91	-1.387396547964
6	72151	14.01	-1.4076259495617
6	72708	14.11	-1.4242211047701
6	73265	14.21	-1.4378349121323
6	73822	14.31	-1.4490029758559
6	74379	14.41	-1.4542593951862
6	74936	14.51	-1.406745439008
6	75493	14.61	-1.2938574955371
6	76050	14.71	-1.1248409052335
6	76607	14.81	-0.90912582143545
6	77164	14.91	-0.65618298377075
6	77729	15.01	-0.37539052554685
6	78286	15.11	-0.078063005097917
6	78843	15.21	0.20543869667193
6	79400	15.31	0.43800883573084
6	79957	15.41	0.6287973539095
6	80514	15.51	0.78531039043277
6	81071	15.61	0.91370559385275
6	81628	15.71	1.0190343806912
6	82185	15.81	1.1054406719015
6	82742	15.91	1.1763239259945
6	83307	16.01	1.2344728829795
6	83864	16.11	1.2821752809813
6	84421	16.21	1.3213078620826
6	84978	16.31	1.3534102084588
6	85535	16.41	1.37974531373
6	86092	16.51	1.401349272566
6	86649	16.61	1.4190720434684
6	87206	16.71	1.4336108884475
6	87763	16.81	1.445537805208
6	88320	16.91	1.4502949065324
6	88885	17.01	1.3935559567514
6	89442	17.11	1.2733368701429
6	89999	17.21	1.0986742440515
6	90556	17.31	0.87879676591136
6	91113	17.41	0.62298329275663
6	91670	17.51	0.34043137853068
6	92227	17.61	0.043031849076769
6	92784	17.71	-0.23417644595618
6	93341	17.81	-0.46158379949794
6	93898	17.91	-0.64813703535584
6	94463	18.01	-0.80117566522766
6	95020	18.11	-0.92672064505805
6	95577	18.21	-1.0297112558195
6	96134	18.31	-1.114199428261
6	96691	18.41	-1.1835091568834
6	97248	18.51	-1.2403672749233
6	97805	18.61	-1.2870107353912
6	98362	18.71	-1.3252746188865
6	98919	18.81	-1.3566643306593
6	99476	18.91	-1.382414827345
6	100041	19.01	-1.4035392035215
6	100598	19.11	-1.4208685496044
6	101155	19.21	-1.4350846492011
6	101712	19.31	-1.4467468023362
6	102269	19.41	-1.4517201941779
6	102826	19.51	-1.3984004323895
6	103383	19.61	-1.2808993810108
6	103940	19.71	-1.1083308503789
6	104497	19.81	-0.88999806037009
6	105054	19.91	-0.63525086467102
6	105619	20.01	-0.35335363991607
6	106176	20.11	-0.055983891309808
6	106733	20.21	0.22355126013096
6	107290	20.31	0.45286744637067
6	107847	20.41	0.64098658988634
6	108404	20.51	0.79530980944291
6	108961	20.61	0.9219086002382
6	109518	20.71	1.0257637030328
6	110075	20.81	1.1109610600439
6	110632	20.91	1.1808525670215
6	111197	21.01	1.2381879459461
6	111754	21.11	1.2852229265697
6	112311	21.21	1.3238079929597
6	112868	21.31	1.3554611865729
6	113425	21.41	1.3814278301389
6	113982	21.51	1.4027295220426
6	114539	21.61	1.4202043287792
6	115096	21.71	1.4345397567762
6	115653	21.81	1.4462998007623
6	116210	21.91	1.4512038299458
6	116775	22.01	1.3966149622043
6	117332	22.11	1.2781048258539
6	117889	22.21	1.1047586168253
6	118446	22.31	0.88585193073918
6	119003	22.41	0.63070830476057
6	119560	22.51	0.34856734380959
6	120117	22.61	0.051185654370656
6	120674	22.71	-0.22748748564574
6	121231	22.81	-0.45609652228009
6	121788	22.91	-0.64363555681872
6	122353	23.01	-0.79748288496297
6	122910	23.11	-0.92369127904632
6	123467	23.21	-1.0272261205632
6	124024	23.31	-1.1121607517786
6	124581	23.41	-1.1818367320966
6	125138	23.51	-1.2389953040923
6	125695	23.61	-1.2858852414528
6	126252	23.71	-1.3243513218477
6	126809	23.81	-1.3559069055024
6	127366	23.91	-1.3817934749049
6	127931	24.01	-1.4030294781044
6	128488	24.11	-1.4204503972252
6	129045	24.21	-1.434741618608
6	129602	24.31	-1.4464653977726
6	130159	24.41	-1.4513952146881
6	130716	24.51	-1.3972773206763
6	131273	24.61	-1.2791416668563
6	131830	24.71	-1.1060840673021
6	132387	24.81	-0.88739036841652
6	132944	24.91	-0.63239387292597
6	133509	25.01	-0.35034337810913
6	134066	25.11	-0.052966136909305
6	134623	25.21	0.2260268698226
6	135180	25.31	0.45489830857264
6	135737	25.41	0.64265260424108
6	136294	25.51	0.79667652148672
6	136851	25.61	0.92302978013947
6	137408	25.71	1.026683461059
6	137965	25.81	1.1117155819772
6	138522	25.91	1.1814715378073
6	139087	26.01	1.2386957175785
6	139644	26.11	1.2856394761656
6	140201	26.21	1.3241497087126
6	140758	26.31	1.3557415125099
6	141315	26.41	1.381657795045
6	141872	26.51	1.4029181733619
6	142429	26.61	1.4203590885685
6	142986	26.71	1.4346667137069
6	143543	26.81	1.4464039496644
6	144100	26.91	1.4513241957726
6	144665	27.01	1.3970315218256
6	145222	27.11	1.2787568961965
6	145779	27.21	1.1055921925461
6	146336	27.31	0.88681945319387
6	146893	27.41	0.63176835684509
6	147450	27.51	0.34968428947479
6	148007	27.61	0.05230539719534
6	148564	27.71	-0.22656890652399
6	149121	27.81	-0.45534296745871
6	149678	27.91	-0.64301737940262
6	150243	28.01	-0.79697576417068
6	150800	28.11	-0.92327526336611
6	151357	28.21	-1.0268848428069
6	151914	28.31	-1.1118807851517
6	152471	28.41	-1.1816070619506
6	153028	28.51	-1.2388068945789
6	153585	28.61	-1.2857306800289
6	154142	28.71	-1.3242245276459
6	154699	28.81	-1.3558028900945
6	155256	28.91	-1.3817081460427
6	155821	29.01	-1.4029594787171
6	156378	29.11	-1.4203929733469
6	156935	29.21	-1.4346945110272
6	157492	29.31	-1.4464267531491
6	158049	29.41	-1.4513505510322
6	158606	29.51	-1.3971227384761
6	159163	29.61	-1.2788996857307
6	159720	29.71	-1.1057747287555
6	160277	29.81	-0.88703132157555
6	160834	29.91	-0.63200048778391
6	161399	30.01	-0.34992887929981
6	161956	30.11	-0.052550599748002
6	162513	30.21	0.22636775502605
6	163070	30.31	0.45517795316989
6	163627	30.41	0.64288201021121
6	164184	30.51	0.79686471428424
6	164741	30.61	0.92318416378099
6	165298	30.71	1.0268101094166
6	165855	30.81	1.1118194777413
6	166412	30.91	1.1815567685208
6	166977	31.01	1.2387656364488
6	167534	31.11	1.2856968339918
6	168091	31.21	1.324196762107
6	168648	31.31	1.3557801126822
6	169205	31.41	1.3816894606308
6	169762	31.51	1.4029441501705
6	170319	31.61	1.4203803985996
6	170876	31.71	1.4346841953547
6	171433	31.81	1.4464182907037
6	171990	31.91	1.451340770512
6	172555	32.01	1.397088887688
6	173112	32.11	1.2788466960817
6	173669	32.21	1.105706988989
6	174226	32.31	0.88695269654693
6	174783	32.41	0.6319143432556
6	175340	32.51	0.34983811123936
6	175897	32.61	0.052459604302157
6	176454	32.71	-0.22644240298604
6	177011	32.81	-0.45523919049693
6	177568	32.91	-0.64293224614822
6	178133	33.01	-0.7969059252499
6	178690	33.11	-0.92321797112582
6	179247	33.21	-1.0268378432144
6	179804	33.31	-1.1118422291158
6	180361	33.41	-1.181575432572
6	180918	33.51	-1.2387809474717
6	181475	33.61	-1.2857093943634
6	182032	33.71	-1.3242070659867
6	182589	33.81	-1.3557885654517
6	183146	33.91	-1.3816963948457
6	183711	34.01	-1.4029498386424
6	184268	34.11	-1.4203850651278
6	184825	34.21	-1.434688023533
6	185382	34.31	-1.4464214311442
6	185939	34.41	-1.4513444000944
6	186496	34.51	-1.3971014498232
6	187053	34.61	-1.2788663607083
6	187610	34.71	-1.1057321274315
6	188167	34.81	-0.88698187454526
6	188724	34.91	-0.63194631176486
6	189289	35.01	-0.34987179555586
6	189846	35.11	-0.052493373001994
6	190403	35.21	0.22641470089013
6	190960	35.31	0.45521646512974
6	191517	35.41	0.64291360343276
6	192074	35.51	0.79689063173021
6	192631	35.61	0.9232054251143
6	193188	35.71	1.0268275511155
6	193745	35.81	1.1118337860104
6	194302	35.91	1.1815685062846
6	194867	36.01	1.2387752655037
6	195424	36.11	1.2857047331707
6	195981	36.21	1.324203242185
6	196538	36.31	1.3557854286034
6	197095	36.41	1.3816938215378
6	197652	36.51	1.4029477276342
6	198209	36.61	1.4203833333653
6	198766	36.71	1.4346866028841
6	199323	36.81	1.4464202657173
6	199880	36.91	1.4513430531448
6	200445	37.01	1.3970967879747
6	201002	37.11	1.2788590631025
6	201559	37.21	1.1057227984747
6	202116	37.31	0.8869710464964
6	202673	37.41	0.63193444814829
6	203230	37.51	0.34985929519813
6	203787	37.61	0.052480841329228
6	204344	37.71	-0.22642498122742
6	204901	37.81	-0.45522489858705
6	205458	37.91	-0.64292052180406
6	206023	38.01	-0.79689630720416
6	206580	38.11	-0.92321008097898
6	207137	38.21	-1.0268313705456
6	207694	38.31	-1.1118369192733
6	208251	38.41	-1.1815710766513
6	208808	38.51	-1.2387773740993
6	209365	38.61	-1.2857064629529
6	209922	38.71	-1.3242046612092
6	210479	38.81	-1.3557865926966
6	211036	38.91	-1.3816947764997
6	211601	39.01	-1.4029485110349
6	212158	39.11	-1.420383976027
6	212715	39.21	-1.4346871300905
6	213272	39.31	-1.4464206982101
6	213829	39.41	-1.4513435530016
6	214386	39.51	-1.3970985180013
6	214943	39.61	-1.2788617712673
6	215500	39.71	-1.1057262604808
6	216057	39.81	-0.88697506482056
6	216614	39.91	-0.63193885077553
6	217179	40.01	-0.34986393412169
6	217736	40.11	-0.052485491873711
6	218293	40.21	0.22642116616005
6	218850	40.31	0.45522176890245
6	219407	40.41	0.64291795437263
6	219964	40.51	0.79689420101552
6	220521	40.61	0.92320835317068
6	221078	40.71	1.0268299531418
6	221635	40.81	1.1118357565078
6	222192	40.91	1.1815701227786
6	222757	41.01	1.2387765915918
6	223314	41.11	1.2857058210248
6	223871	41.21	1.3242041346043
6	224428	41.31	1.3557861606976
6	224985	41.41	1.3816944221094
6	225542	41.51	1.4029482203117
6	226099	41.61	1.420383737533
6	226656	41.71	1.4346869344426
6	227213	41.81	1.4464205377106
6	227770	41.91	1.4513433675031
6	228335	42.01	1.3970978759829
6	228892	42.11	1.2788607662586
6	229449	42.21	1.1057249757194
6	230006	42.31	0.88697357360701
6	230563	42.41	0.6319372169461
6	231120	42.51	0.3498622126024
6	231677	42.61	0.052483766041789
6	232234	42.71	-0.22642258194381
6	232791	42.81	-0.45522293033819
6	233348	42.91	-0.64291890715467
6	233913	43.01	-0.79689498262923
6	234470	43.11	-0.92320899436622
6	235027	43.21	-1.0268304791456
6	235584	43.31	-1.111836188014
6	236141	43.41	-1.1815704767642
6	236698	43.51	-1.2387768819831
6	237255	43.61	-1.2857060592466
6	237812	43.71	-1.3242043300295
6	238369	43.81	-1.3557863210146
6	238926	43.91	-1.3816945536259
6	239491	44.01	-1.4029483282012
6	240048	44.11	-1.4203838260396
6	240605	44.21	-1.4346870070494
6	241162	44.31	-1.4464205972729
6	241719	44.41	-1.4513434363423
6	242276	44.51	-1.3970981142382
6	242833	44.61	-1.2788611392207
6	243390	44.71	-1.1057254524978
6	243947	44.81	-0.88697412700043
6	244504	44.91	-0.63193782326394
6	245069	45.01	-0.34986285146203
6	245626	45.11	-0.052484406502273
6	246183	45.21	0.22642205654293
6	246740	45.31	0.45522249932652
6	247297	45.41	0.64291855357439
6	247854	45.51	0.7968946925704
6	248411	45.61	0.92320875641683
6	248968	45.71	1.0268302839439
6	249525	45.81	1.1118360278807
6	250082	45.91	1.1815703453994
6	250647	46.01	1.2387767742183
6	251204	46.11	1.285705970842
6	251761	46.21	1.3242042575069
6	252318	46.31	1.3557862615201
6	252875	46.41	1.3816945048191
6	253432	46.51	1.4029482881629
6	253989	46.61	1.4203837931944
6	254546	46.71	1.4346869801042
6	255103	46.81	1.4464205751686
6	255660	46.91	1.4513434107954
6	256225	47.01	1.3970980258208
6	256782	47.11	1.2788610008133
6	257339	47.21	1.1057252755645
6	257896	47.31	0.88697392163581
6	258453	47.41	0.63193759825886
6	259010	47.51	0.34986261438021
6	259567	47.61	0.052484168826084
6	260124	47.71	-0.22642225152048
6	260681	47.81	-0.45522265927609
6	261238	47.91	-0.64291868478925
6	261803	48.01	-0.79689480021266
6	262360	48.11	-0.92320884472166
6	262917	48.21	-1.0268303563844
6	263474	48.31	-1.1118360873073
6	264031	48.41	-1.1815703941497
6	264588	48.51	-1.2387768142112
6	265145	48.61	-1.2857060036499
6	265702	48.71	-1.3242042844208
6	266259	48.81	-1.3557862835995
6	266816	48.91	-1.3816945229319
6	267381	49.01	-1.402948303021
6	267938	49.11	-1.4203838053835
6	268495	49.21	-1.434686990104
6	269052	49.31	-1.4464205833722
6	269609	49.41	-1.4513434202772
6	270166	49.51	-1.3970980586329
6	270723	49.61	-1.278861052177
6	271280	49.71	-1.105725341225
6	271837	49.81	-0.88697399784721
6	272394	49.91	-0.63193768175829
6	272959	50.01	-0.34986270236175
6	273516	50.11	-0.05248425702824
6	274073	50.21	0.22642217916413
6	274630	50.31	0.45522259991877
6	275187	50.41	0.6429186360954
6	275744	50.51	0.79689476026594
6	276301	50.61	0.92320881195107
6	276858	50.71	1.0268303295014
6	277415	50.81	1.1118360652539
6	277972	50.91	1.1815703760583
6	278537	51.01	1.2387767993697
6	279094	51.11	1.2857059914751
6	279651	51.21	1.3242042744334
6	280208	51.31	1.3557862754059
6	280765	51.41	1.3816945162102
6	281322	51.51	1.4029482975072
6	281879	51.61	1.4203838008605
6	282436	51.71	1.4346869863935
6	282993	51.81	1.4464205803286
6	283550	51.91	1.451343416759
6	284115	52.01	1.3970980464567
6	284672	52.11	1.2788610331157
6	285229	52.21	1.1057253168584
6	285786	52.31	0.88697396956547
6	286343	52.41	0.63193765077223
6	286900	52.51	0.34986266971266
6	287457	52.61	0.052484224297444
6	288014	52.71	-0.22642220601448
6	288571	52.81	-0.45522262194524
6	289128	52.91	-0.64291865416521
6	289693	53.01	-0.79689477508964
6	290250	53.11	-0.9232088241113
6	290807	53.21	-1.0268303394767
6	291364	53.31	-1.1118360734379
6	291921	53.41	-1.1815703827718
6	292478	53.51	-1.2387768048768
6	293035	53.61	-1.2857059959927
6	293592	53.71	-1.3242042781389
6	294149	53.81	-1.3557862784456
6	294706	53.91	-1.3816945187042
6	295271	54.01	-1.4029482995529
6	295828	54.11	-1.4203838025381
6	296385	54.21	-1.4346869877695
6	296942	54.31	-1.4464205814569
6	297499	54.41	-1.4513434180639
6	298056	54.51	-1.397098050975
6	298613	54.61	-1.2788610401895
6	299170	54.71	-1.1057253259011
6	299727	54.81	-0.88697398006055
6	300284	54.91	-0.63193766227059
6	300849	55.01	-0.34986268182813
6	301406	55.11	-0.052484236443462
6	301963	55.21	0.22642219605018
6	302520	55.31	0.4552226137708
6	303077	55.41	0.6429186474584
6	303634	55.51	0.79689476958791
6	304191	55.61	0.92320881959758
6	304748	55.71	1.0268303357741
6	305305	55.81	1.1118360704
6	305862	55.91	1.18157038028
6	306427	56.01	1.2387768028326
6	306984	56.11	1.2857059943155
6	307541	56.21	1.3242042767637
6	308098	56.31	1.355786277318
6	308655	56.41	1.3816945177794
6	309212	56.51	1.4029482987947
6	309769	56.61	1.420383801916
6	310326	56.71	1.4346869872593
6	310883	56.81	1.4464205810384
6	311440	56.91	1.4513434175793
6	312005	57.01	1.3970980492978
6	312562	57.11	1.2788610375637
6	313119	57.21	1.1057253225449
6	313676	57.31	0.886973976165
6	314233	57.41	0.63193765800307
6	314790	57.51	0.34986267733181
6	315347	57.61	0.052484231935068
6	315904	57.71	-0.22642219974927
6	316461	57.81	-0.45522261680553
6	317018	57.91	-0.64291864994814
6	317583	58.01	-0.79689477163036
6	318140	58.11	-0.92320882127339
6	318697	58.21	-1.026830337149
6	319254	58.31	-1.1118360715276
6	319811	58.41	-1.1815703812051
6	320368	58.51	-1.2387768035918
6	320925	58.61	-1.2857059949379
6	321482	58.71	-1.3242042772738
6	322039	58.81	-1.3557862777361
6	322596	58.91	-1.3816945181215
6	323161	59.01	-1.4029482990757
6	323718	59.11	-1.4203838021466
6	324275	59.21	-1.4346869874483
6	324832	59.31	-1.4464205811937
6	325389	59.41	-1.4513434177591
6	325946	59.51	-1.3970980499199
6	326503	59.61	-1.2788610385382
6	327060	59.71	-1.1057253237905
6	327617	59.81	-0.88697397761095
6	328174	59.91	-0.63193765958722
5	232	1.11	36.55
5	788	1.21	36.55
5	1344	1.31	36.55
5	1900	1.41	36.55
5	2456	1.51	36.55
5	3012	1.61	36.55
5	3568	1.71	36.55
5	4124	1.81	36.55
5	4680	1.91	36.55
5	5244	2.01	36.55
5	5800	2.11	36.55
5	6356	2.21	36.55
5	6912	2.31	36.55
5	7468	2.41	36.55
5	8024	2.51	36.55
5	8580	2.61	36.55
5	9136	2.71	36.55
5	9692	2.81	36.55
5	10248	2.91	36.55
5	10812	3.01	36.55
5	11368	3.11	36.55
5	11924	3.21	36.55
5	12480	3.31	36.55
5	13036	3.41	36.55
5	13592	3.51	36.55
5	14148	3.61	36.55
5	14704	3.71	36.55
5	15260	3.81	36.55
5	15816	3.91	36.55
5	16380	4.01	36.55
5	16936	4.11	36.55
5	17492	4.21	36.55
5	18048	4.31	36.55
5	18604	4.41	36.55
5	19160	4.51	36.55
5	19716	4.61	36.55
5	20272	4.71	36.55
5	20828	4.81	36.55
5	21384	4.91	36.55
5	21949	5.01	36.55
5	22506	5.11	36.55
5	23063	5.21	36.55
5	23620	5.31	36.55
5	24177	5.41	36.55
5	24734	5.51	36.55
5	25291	5.61	36.55
5	25848	5.71	36.55
5	26405	5.81	36.55
5	26962	5.91	36.55
5	27527	6.01	36.55
5	28084	6.11	36.55
5	28641	6.21	36.55
5	29198	6.31	36.55
5	29755	6.41	36.55
5	30312	6.51	36.55
5	30869	6.61	36.55
5	31426	6.71	36.55
5	31983	6.81	36.55
5	32540	6.91	36.55
5	33105	7.01	36.55
5	33662	7.11	36.55
5	34219	7.21	36.55
5	34776	7.31	36.55
5	35333	7.41	36.55
5	35890	7.51	36.55
5	36447	7.61	36.55
5	37004	7.71	36.55
5	37561	7.81	36.55
5	38118	7.91	36.55
5	38683	8.01	36.55
5	39240	8.11	36.55
5	39797	8.21	36.55
5	40354	8.31	36.55
5	40911	8.41	36.55
5	41468	8.51	36.55
5	42025	8.61	36.55
5	42582	8.71	36.55
5	43139	8.81	36.55
5	43696	8.91	36.55
5	44261	9.01	36.55
5	44818	9.11	36.55
5	45375	9.21	36.55
5	45932	9.31	36.55
5	46489	9.41	36.55
5	47046	9.51	36.55
5	47603	9.61	36.55
5	48160	9.71	36.55
5	48717	9.81	36.55
5	49274	9.91	36.55
5	49839	10.01	36.55
5	50396	10.11	36.55
5	50953	10.21	36.55
5	51510	10.31	36.55
5	52067	10.41	36.55
5	52624	10.51	36.55
5	53181	10.61	36.55
5	53738	10.71	36.55
5	54295	10.81	36.55
5	54852	10.91	36.55
5	55417	11.01	36.55
5	55974	11.11	36.55
5	56531	11.21	36.55
5	57088	11.31	36.55
5	57645	11.41	36.55
5	58202	11.51	36.55
5	58759	11.61	36.55
5	59316	11.71	36.55
5	59873	11.81	36.55
5	60430	11.91	36.55
5	60995	12.01	36.55
5	61552	12.11	36.55
5	62109	12.21	36.55
5	62666	12.31	36.55
5	63223	12.41	36.55
5	63780	12.51	36.55
5	64337	12.61	36.55
5	64894	12.71	36.55
5	65451	12.81	36.55
5	66008	12.91	36.55
5	66573	13.01	36.55
5	67130	13.11	36.55
5	67687	13.21	36.55
5	68244	13.31	36.55
5	68801	13.41	36.55
5	69358	13.51	36.55
5	69915	13.61	36.55
5	70472	13.71	36.55
5	71029	13.81	36.55
5	71586	13.91	36.55
5	72151	14.01	36.55
5	72708	14.11	36.55
5	73265	14.21	36.55
5	73822	14.31	36.55
5	74379	14.41	36.55
5	74936	14.51	36.55
5	75493	14.61	36.55
5	76050	14.71	36.55
5	76607	14.81	36.55
5	77164	14.91	36.55
5	77729	15.01	36.55
5	78286	15.11	36.55
5	78843	15.21	36.55
5	79400	15.31	36.55
5	79957	15.41	36.55
5	80514	15.51	36.55
5	81071	15.61	36.55
5	81628	15.71	36.55
5	82185	15.81	36.55
5	82742	15.91	36.55
5	83307	16.01	36.55
5	83864	16.11	36.55
5	84421	16.21	36.55
5	84978	16.31	36.55
5	85535	16.41	36.55
5	86092	16.51	36.55
5	86649	16.61	36.55
5	87206	16.71	36.55
5	87763	16.81	36.55
5	88320	16.91	36.55
5	88885	17.01	36.55
5	89442	17.11	36.55
5	89999	17.21	36.55
5	90556	17.31	36.55
5	91113	17.41	36.55
5	91670	17.51	36.55
5	92227	17.61	36.55
5	92784	17.71	36.55
5	93341	17.81	36.55
5	93898	17.91	36.55
5	94463	18.01	36.55
5	95020	18.11	36.55
5	95577	18.21	36.55
5	96134	18.31	36.55
5	96691	18.41	36.55
5	97248	18.51	36.55
5	97805	18.61	36.55
5	98362	18.71	36.55
5	98919	18.81	36.55
5	99476	18.91	36.55
5	100041	19.01	36.55
5	100598	19.11	36.55
5	101155	19.21	36.55
5	101712	19.31	36.55
5	102269	19.41	36.55
5	102826	19.51	36.55
5	103383	19.61	36.55
5	103940	19.71	36.55
5	104497	19.81	36.55
5	105054	19.91	36.55
5	105619	20.01	36.55
5	106176	20.11	36.55
5	106733	20.21	36.55
5	107290	20.31	36.55
5	107847	20.41	36.55
5	108404	20.51	36.55
5	108961	20.61	36.55
5	109518	20.71	36.55
5	110075	20.81	36.55
5	110632	20.91	36.55
5	111197	21.01	36.55
5	111754	21.11	36.55
5	112311	21.21	36.55
5	112868	21.31	36.55
5	113425	21.41	36.55
5	113982	21.51	36.55
5	114539	21.61	36.55
5	115096	21.71	36.55
5	115653	21.81	36.55
5	116210	21.91	36.55
5	116775	22.01	36.55
5	117332	22.11	36.55
5	117889	22.21	36.55
5	118446	22.31	36.55
5	119003	22.41	36.55
5	119560	22.51	36.55
5	120117	22.61	36.55
5	120674	22.71	36.55
5	121231	22.81	36.55
5	121788	22.91	36.55
5	122353	23.01	36.55
5	122910	23.11	36.55
5	123467	23.21	36.55
5	124024	23.31	36.55
5	124581	23.41	36.55
5	125138	23.51	36.55
5	125695	23.61	36.55
5	126252	23.71	36.55
5	126809	23.81	36.55
5	127366	23.91	36.55
5	127931	24.01	36.55
5	128488	24.11	36.55
5	129045	24.21	36.55
5	129602	24.31	36.55
5	130159	24.41	36.55
5	130716	24.51	36.55
5	131273	24.61	36.55
5	131830	24.71	36.55
5	132387	24.81	36.55
5	132944	24.91	36.55
5	133509	25.01	36.55
5	134066	25.11	36.55
5	134623	25.21	36.55
5	135180	25.31	36.55
5	135737	25.41	36.55
5	136294	25.51	36.55
5	136851	25.61	36.55
5	137408	25.71	36.55
5	137965	25.81	36.55
5	138522	25.91	36.55
5	139087	26.01	36.55
5	139644	26.11	36.55
5	140201	26.21	36.55
5	140758	26.31	36.55
5	141315	26.41	36.55
5	141872	26.51	36.55
5	142429	26.61	36.55
5	142986	26.71	36.55
5	143543	26.81	36.55
5	144100	26.91	36.55
5	144665	27.01	36.55
5	145222	27.11	36.55
5	145779	27.21	36.55
5	146336	27.31	36.55
5	146893	27.41	36.55
5	147450	27.51	36.55
5	148007	27.61	36.55
5	148564	27.71	36.55
5	149121	27.81	36.55
5	149678	27.91	36.55
5	150243	28.01	36.55
5	150800	28.11	36.55
5	151357	28.21	36.55
5	151914	28.31	36.55
5	152471	28.41	36.55
5	153028	28.51	36.55
5	153585	28.61	36.55
5	154142	28.71	36.55
5	154699	28.81	36.55
5	155256	28.91	36.55
5	155821	29.01	36.55
5	156378	29.11	36.55
5	156935	29.21	36.55
5	157492	29.31	36.55
5	158049	29.41	36.55
5	158606	29.51	36.55
5	159163	29.61	36.55
5	159720	29.71	36.55
5	160277	29.81	36.55
5	160834	29.91	36.55
5	161399	30.01	36.55
5	161956	30.11	36.55
5	162513	30.21	36.55
5	163070	30.31	36.55
5	163627	30.41	36.55
5	164184	30.51	36.55
5	164741	30.61	36.55
5	165298	30.71	36.55
5	165855	30.81	36.55
5	166412	30.91	36.55
5	166977	31.01	36.55
5	167534	31.11	36.55
5	168091	31.21	36.55
5	168648	31.31	36.55
5	169205	31.41	36.55
5	169762	31.51	36.55
5	170319	31.61	36.55
5	170876	31.71	36.55
5	171433	31.81	36.55
5	171990	31.91	36.55
5	172555	32.01	36.55
5	173112	32.11	36.55
5	173669	32.21	36.55
5	174226	32.31	36.55
5	174783	32.41	36.55
5	175340	32.51	36.55
5	175897	32.61	36.55
5	176454	32.71	36.55
5	177011	32.81	36.55
5	177568	32.91	36.55
5	178133	33.01	36.55
5	178690	33.11	36.55
5	179247	33.21	36.55
5	179804	33.31	36.55
5	180361	33.41	36.55
5	180918	33.51	36.55
5	181475	33.61	36.55
5	182032	33.71	36.55
5	182589	33.81	36.55
5	183146	33.91	36.55
5	183711	34.01	36.55
5	184268	34.11	36.55
5	184825	34.21	36.55
5	185382	34.31	36.55
5	185939	34.41	36.55
5	186496	34.51	36.55
5	187053	34.61	36.55
5	187610	34.71	36.55
5	188167	34.81	36.55
5	188724	34.91	36.55
5	189289	35.01	36.55
5	189846	35.11	36.55
5	190403	35.21	36.55
5	190960	35.31	36.55
5	191517	35.41	36.55
5	192074	35.51	36.55
5	192631	35.61	36.55
5	193188	35.71	36.55
5	193745	35.81	36.55
5	194302	35.91	36.55
5	194867	36.01	36.55
5	195424	36.11	36.55
5	195981	36.21	36.55
5	196538	36.31	36.55
5	197095	36.41	36.55
5	197652	36.51	36.55
5	198209	36.61	36.55
5	198766	36.71	36.55
5	199323	36.81	36.55
5	199880	36.91	36.55
5	200445	37.01	36.55
5	201002	37.11	36.55
5	201559	37.21	36.55
5	202116	37.31	36.55
5	202673	37.41	36.55
5	203230	37.51	36.55
5	203787	37.61	36.55
5	204344	37.71	36.55
5	204901	37.81	36.55
5	205458	37.91	36.55
5	206023	38.01	36.55
5	206580	38.11	36.55
5	207137	38.21	36.55
5	207694	38.31	36.55
5	208251	38.41	36.55
5	208808	38.51	36.55
5	209365	38.61	36.55
5	209922	38.71	36.55
5	210479	38.81	36.55
5	211036	38.91	36.55
5	211601	39.01	36.55
5	212158	39.11	36.55
5	212715	39.21	36.55
5	213272	39.31	36.55
5	213829	39.41	36.55
5	214386	39.51	36.55
5	214943	39.61	36.55
5	215500	39.71	36.55
5	216057	39.81	36.55
5	216614	39.91	36.55
5	217179	40.01	36.55
5	217736	40.11	36.55
5	218293	40.21	36.55
5	218850	40.31	36.55
5	219407	40.41	36.55
5	219964	40.51	36.55
5	220521	40.61	36.55
5	221078	40.71	36.55
5	221635	40.81	36.55
5	222192	40.91	36.55
5	222757	41.01	36.55
5	223314	41.11	36.55
5	223871	41.21	36.55
5	224428	41.31	36.55
5	224985	41.41	36.55
5	225542	41.51	36.55
5	226099	41.61	36.55
5	226656	41.71	36.55
5	227213	41.81	36.55
5	227770	41.91	36.55
5	228335	42.01	36.55
5	228892	42.11	36.55
5	229449	42.21	36.55
5	230006	42.31	36.55
5	230563	42.41	36.55
5	231120	42.51	36.55
5	231677	42.61	36.55
5	232234	42.71	36.55
5	232791	42.81	36.55
5	233348	42.91	36.55
5	233913	43.01	36.55
5	234470	43.11	36.55
5	235027	43.21	36.55
5	235584	43.31	36.55
5	236141	43.41	36.55
5	236698	43.51	36.55
5	237255	43.61	36.55
5	237812	43.71	36.55
5	238369	43.81	36.55
5	238926	43.91	36.55
5	239491	44.01	36.55
5	240048	44.11	36.55
5	240605	44.21	36.55
5	241162	44.31	36.55
5	241719	44.41	36.55
5	242276	44.51	36.55
5	242833	44.61	36.55
5	243390	44.71	36.55
5	243947	44.81	36.55
5	244504	44.91	36.55
5	245069	45.01	36.55
5	245626	45.11	36.55
5	246183	45.21	36.55
5	246740	45.31	36.55
5	247297	45.41	36.55
5	247854	45.51	36.55
5	248411	45.61	36.55
5	248968	45.71	36.55
5	249525	45.81	36.55
5	250082	45.91	36.55
5	250647	46.01	36.55
5	251204	46.11	36.55
5	251761	46.21	36.55
5	252318	46.31	36.55
5	252875	46.41	36.55
5	253432	46.51	36.55
5	253989	46.61	36.55
5	254546	46.71	36.55
5	255103	46.81	36.55
5	255660	46.91	36.55
5	256225	47.01	36.55
5	256782	47.11	36.55
5	257339	47.21	36.55
5	257896	47.31	36.55
5	258453	47.41	36.55
5	259010	47.51	36.55
5	259567	47.61	36.55
5	260124	47.71	36.55
5	260681	47.81	36.55
5	261238	47.91	36.55
5	261803	48.01	36.55
5	262360	48.11	36.55
5	262917	48.21	36.55
5	263474	48.31	36.55
5	264031	48.41	36.55
5	264588	48.51	36.55
5	265145	48.61	36.55
5	265702	48.71	36.55
5	266259	48.81	36.55
5	266816	48.91	36.55
5	267381	49.01	36.55
5	267938	49.11	36.55
5	268495	49.21	36.55
5	269052	49.31	36.55
5	269609	49.41	36.55
5	270166	49.51	36.55
5	270723	49.61	36.55
5	271280	49.71	36.55
5	271837	49.81	36.55
5	272394	49.91	36.55
5	272959	50.01	36.55
5	273516	50.11	36.55
5	274073	50.21	36.55
5	274630	50.31	36.55
5	275187	50.41	36.55
5	275744	50.51	36.55
5	276301	50.61	36.55
5	276858	50.71	36.55
5	277415	50.81	36.55
5	277972	50.91	36.55
5	278537	51.01	36.55
5	279094	51.11	36.55
5	279651	51.21	36.55
5	280208	51.31	36.55
5	280765	51.41	36.55
5	281322	51.51	36.55
5	281879	51.61	36.55
5	282436	51.71	36.55
5	282993	51.81	36.55
5	283550	51.91	36.55
5	284115	52.01	36.55
5	284672	52.11	36.55
5	285229	52.21	36.55
5	285786	52.31	36.55
5	286343	52.41	36.55
5	286900	52.51	36.55
5	287457	52.61	36.55
5	288014	52.71	36.55
5	288571	52.81	36.55
5	289128	52.91	36.55
5	289693	53.01	36.55
5	290250	53.11	36.55
5	290807	53.21	36.55
5	291364	53.31	36.55
5	291921	53.41	36.55
5	292478	53.51	36.55
5	293035	53.61	36.55
5	293592	53.71	36.55
5	294149	53.81	36.55
5	294706	53.91	36.55
5	295271	54.01	36.55
5	295828	54.11	36.55
5	296385	54.21	36.55
5	296942	54.31	36.55
5	297499	54.41	36.55
5	298056	54.51	36.55
5	298613	54.61	36.55
5	299170	54.71	36.55
5	299727	54.81	36.55
5	300284	54.91	36.55
5	300849	55.01	36.55
5	301406	55.11	36.55
5	301963	55.21	36.55
5	302520	55.31	36.55
5	303077	55.41	36.55
5	303634	55.51	36.55
5	304191	55.61	36.55
5	304748	55.71	36.55
5	305305	55.81	36.55
5	305862	55.91	36.55
5	306427	56.01	36.55
5	306984	56.11	36.55
5	307541	56.21	36.55
5	308098	56.31	36.55
5	308655	56.41	36.55
5	309212	56.51	36.55
5	309769	56.61	36.55
5	310326	56.71	36.55
5	310883	56.81	36.55
5	311440	56.91	36.55
5	312005	57.01	36.55
5	312562	57.11	36.55
5	313119	57.21	36.55
5	313676	57.31	36.55
5	314233	57.41	36.55
5	314790	57.51	36.55
5	315347	57.61	36.55
5	315904	57.71	36.55
5	316461	57.81	36.55
5	317018	57.91	36.55
5	317583	58.01	36.55
5	318140	58.11	36.55
5	318697	58.21	36.55
5	319254	58.31	36.55
5	319811	58.41	36.55
5	320368	58.51	36.55
5	320925	58.61	36.55
5	321482	58.71	36.55
5	322039	58.81	36.55
5	322596	58.91	36.55
5	323161	59.01	36.55
5	323718	59.11	36.55
5	324275	59.21	36.55
5	324832	59.31	36.55
5	325389	59.41	36.55
5	325946	59.51	36.55
5	326503	59.61	36.55
5	327060	59.71	36.55
5	327617	59.81	36.55
5	328174	59.91	36.55
4	232	1.11	139.82761459377
4	788	1.21	142.04983673298
4	1344	1.31	144.27205887491
4	1900	1.41	146.49428102051
4	2456	1.51	148.71650317049
4	3012	1.61	150.93872532536
4	3568	1.71	153.16094748545
4	4124	1.81	155.38316965094
4	4680	1.91	157.60539182188
4	5244	2.01	159.8276139982
4	5800	2.11	162.04983617976
4	6356	2.21	164.27205836636
4	6912	2.31	166.49428055772
4	7468	2.41	168.71650275354
4	8024	2.51	170.9387249535
4	8580	2.61	173.16094715724
4	9136	2.71	175.38316936443
4	9692	2.81	177.60539157471
4	10248	2.91	179.82761378775
4	10812	3.01	182.0498360032
4	11368	3.11	184.27205822077
4	11924	3.21	186.49428044014
4	12480	3.31	188.71650266106
4	13036	3.41	190.93872488326
4	13592	3.51	193.16094710651
4	14148	3.61	195.38316933061
4	14704	3.71	197.60539155537
4	15260	3.81	199.82761378063
4	15816	3.91	202.04983600625
4	16380	4.01	204.27205823209
4	16936	4.11	206.49428045805
4	17492	4.21	208.71650268405
4	18048	4.31	210.93872491
4	18604	4.41	213.16094713586
4	19160	4.51	215.38316936157
4	19716	4.61	217.6053915871
4	20272	4.71	219.82761381242
4	20828	4.81	222.04983603751
4	21384	4.91	224.27205826236
4	21949	5.01	226.49428048697
4	22506	5.11	228.71650407662
4	23063	5.21	230.93895416774
4	23620	5.31	233.16240435202
4	24177	5.41	235.38807925711
4	24734	5.51	237.61752886674
4	25291	5.61	239.85248804337
4	25848	5.71	242.09464227153
4	26405	5.81	244.3453935917
4	26962	5.91	246.60589229717
4	27527	6.01	248.87708202911
4	28084	6.11	251.15973690194
4	28641	6.21	253.45449195911
4	29198	6.31	255.76186815744
4	29755	6.41	258.08229286295
4	30312	6.51	260.41611663297
4	30869	6.61	262.76359721743
4	31426	6.71	265.12468818339
4	31983	6.81	267.49886301429
4	32540	6.91	269.8851329338
4	33105	7.01	272.28208322913
4	33662	7.11	274.68791678577
4	34219	7.21	277.10050367778
4	34776	7.31	279.51743564581
4	35333	7.41	281.9360847529
4	35890	7.51	284.35373807181
4	36447	7.61	286.7678977962
4	37004	7.71	289.17649678074
4	37561	7.81	291.57783924631
4	38118	7.91	293.97053406338
4	38683	8.01	296.35344002119
4	39240	8.11	298.72562092946
4	39797	8.21	301.08630878607
4	40354	8.31	303.43487356178
4	40911	8.41	305.77079841319
4	41468	8.51	308.09365934869
4	42025	8.61	310.40310854748
4	42582	8.71	312.69886067535
4	43139	8.81	314.98068165889
4	43696	8.91	317.24837947635
4	44261	9.01	319.50179660303
4	44818	9.11	321.74080381381
4	45375	9.21	323.96529509907
4	45932	9.31	326.17518349401
4	46489	9.41	328.37039765721
4	47046	9.51	330.55088132664
4	47603	9.61	332.7168298027
4	48160	9.71	334.86910440669
4	48717	9.81	337.00919690102
4	49274	9.91	339.13912439873
4	49839	10.01	341.26132473934
4	50396	10.11	343.37855363967
4	50953	10.21	345.49378385898
4	51510	10.31	347.60994361121
4	52067	10.41	349.72955420548
4	52624	10.51	351.85469046766
4	53181	10.61	353.98705447761
4	53738	10.71	356.12804253368
4	54295	10.81	358.2788000868
4	54852	10.91	360.44026680573
4	55417	11.01	362.61321354612
4	55974	11.11	364.79827267811
4	56531	11.21	366.99596296545
4	57088	11.31	369.20670997511
4	57645	11.41	371.43086282023
4	58202	11.51	373.66870789518
4	58759	11.61	375.92048014309
4	59316	11.71	378.18637229916
4	59873	11.81	380.4665424734
4	60430	11.91	382.76110557165
4	60995	12.01	385.06985656416
4	61552	12.11	387.39195013493
4	62109	12.21	389.72595718265
4	62666	12.31	392.06995181668
4	63223	12.41	394.42160014827
4	63780	12.51	396.77824951383
4	64337	12.61	399.13701770516
4	64894	12.71	401.49501597313
4	65451	12.81	403.8496985433
4	66008	12.91	406.19896631092
4	66573	13.01	408.54109727897
4	67130	13.11	410.87467881012
4	67687	13.21	413.19855204975
4	68244	13.31	415.51176633344
4	68801	13.41	417.81354178523
4	69358	13.51	420.10323863522
4	69915	13.61	422.38033204926
4	70472	13.71	424.64439148055
4	71029	13.81	426.89506373074
4	71586	13.91	429.13205905417
4	72151	14.01	431.35513975849
4	72708	14.11	433.56411085317
4	73265	14.21	435.75881237808
4	73822	14.31	437.93911311018
4	74379	14.41	440.10490618194
4	74936	14.51	442.25625813119
4	75493	14.61	444.39378426398
4	76050	14.71	446.51872831491
4	76607	14.81	448.63287610134
4	77164	14.91	450.73846110745
4	77729	15.01	452.83806993536
4	78286	15.11	454.93454850342
4	78843	15.21	457.0308396854
4	79400	15.31	459.12965263452
4	79957	15.41	461.23322908652
4	80514	15.51	463.34340804552
4	81071	15.61	465.4616981354
4	81628	15.71	467.58933695323
4	82185	15.81	469.72733975962
4	82742	15.91	471.87653942192
4	83307	16.01	474.03761918143
4	83864	16.11	476.21113953399
4	84421	16.21	478.39756028141
4	84978	16.31	480.59725862132
4	85535	16.41	482.81054398716
4	86092	16.51	485.03767022212
4	86649	16.61	487.27884556604
4	87206	16.71	489.53424084811
4	87763	16.81	491.80399620776
4	88320	16.91	494.08822559368
4	88885	17.01	496.38683250188
4	89442	17.11	498.69911856211
4	89999	17.21	501.0237701131
4	90556	17.31	503.35894785804
4	91113	17.41	505.70237928487
4	91670	17.51	508.05145131903
4	92227	17.61	510.40330249309
4	92784	17.71	512.75500716199
4	93341	17.81	515.10391306156
4	93898	17.91	517.44782821996
4	94463	18.01	519.78495445682
4	95020	18.11	522.11381663795
4	95577	18.21	524.43320463949
4	96134	18.31	526.74212573843
4	96691	18.41	529.0397655561
4	97248	18.51	531.32545601836
4	97805	18.61	533.59864907173
4	98362	18.71	535.85889512146
4	98919	18.81	538.10582534326
4	99476	18.91	540.33913717275
4	100041	19.01	542.55858240177
4	100598	19.11	544.76395741317
4	101155	19.21	546.95509516995
4	101712	19.31	549.13185864361
4	102269	19.41	551.29413634179
4	102826	19.51	553.44201343038
4	103383	19.61	555.57615744637
4	103940	19.71	557.69785612394
4	104497	19.81	559.80892892279
4	105054	19.91	561.91163386958
4	105619	20.01	564.00857420355
4	106176	20.11	566.10260560294
4	106733	20.21	568.19666005973
4	107290	20.31	570.29341087005
4	107847	20.41	572.3950684049
4	108404	20.51	574.50344593838
4	108961	20.61	576.62003098682
4	109518	20.71	578.74604383169
4	110075	20.81	580.88248552885
4	110632	20.91	583.03017729275
4	111197	21.01	585.18979280527
4	111754	21.11	587.36188472021
4	112311	21.21	589.54690640617
4	112868	21.31	591.74522978329
4	113425	21.41	593.95715995566
4	113982	21.51	596.18294721486
4	114539	21.61	598.4227968872
4	115096	21.71	600.67687741175
4	115653	21.81	602.94532696722
4	116210	21.91	605.22825795961
4	116775	22.01	607.52558109672
4	117332	22.11	609.83661741882
4	117889	22.21	612.16006956569
4	118446	22.31	614.49411071026
4	119003	22.41	616.83647744358
4	119560	22.51	619.18456286909
4	120117	22.61	621.53550915229
4	120674	22.71	623.88638664586
4	121231	22.81	626.23452984477
4	121788	22.91	628.57773519419
4	122353	23.01	630.91419501167
4	122910	23.11	633.242426368
4	123467	23.21	635.56121274471
4	124024	23.31	637.86955617294
4	124581	23.41	640.16663797065
4	125138	23.51	642.45178653339
4	125695	23.61	644.72445091162
4	126252	23.71	646.9841791348
4	126809	23.81	649.23060042968
4	127366	23.91	651.46341063306
4	127931	24.01	653.68236022516
4	128488	24.11	655.88724451285
4	129045	24.21	658.0778955765
4	129602	24.31	660.25417566348
4	130159	24.41	662.41597270625
4	130716	24.51	664.56337446537
4	131273	24.61	666.69705566149
4	131830	24.71	668.81831008247
4	132387	24.81	670.92896182124
4	132944	24.91	673.03127228921
4	133509	25.01	675.12784702558
4	134066	25.11	677.2215430645
4	134623	25.21	679.31529092319
4	135180	25.31	681.41175899772
4	135737	25.41	683.5131533722
4	136294	25.51	685.62128380396
4	136851	25.61	687.73763492437
4	137408	25.71	689.86342464823
4	137965	25.81	691.99965208989
4	138522	25.91	694.14713687111
4	139087	26.01	696.30655136719
4	139644	26.11	698.47844716008
4	140201	26.21	700.66327673909
4	140758	26.31	702.86141130306
4	141315	26.41	705.07315536432
4	141872	26.51	707.29875872904
4	142429	26.61	709.53842632531
4	142986	26.71	711.7923262655
4	143543	26.81	714.06059646035
4	144100	26.91	716.34334910299
4	144665	27.01	718.64049586447
4	145222	27.11	720.95136045098
4	145779	27.21	723.27464774896
4	146336	27.31	725.60853265083
4	146893	27.41	727.95075300387
4	147450	27.51	730.29870276517
4	148007	27.61	732.64952460357
4	148564	27.71	735.00028832466
4	149121	27.81	737.34832660523
4	149678	27.91	739.6914342998
4	150243	28.01	742.02780242103
4	150800	28.11	744.35594696923
4	151357	28.21	746.67465054776
4	151914	28.31	748.98291446739
4	152471	28.41	751.27991945507
4	153028	28.51	753.56499342158
4	153585	28.61	755.83758501964
4	154142	28.71	758.09724195247
4	154699	28.81	760.34359317917
4	155256	28.91	762.57633431696
4	155821	29.01	764.79521566596
4	156378	29.11	767.00003238527
4	156935	29.21	769.19061643404
4	157492	29.31	771.36682996022
4	158049	29.41	773.52856081727
4	158606	29.51	775.67589712322
4	159163	29.61	777.80951458807
4	159720	29.71	779.93070783341
4	160277	29.81	782.04130159028
4	160834	29.91	784.1435577363
4	161399	30.01	786.24008212745
4	161956	30.11	788.33373198466
4	162513	30.21	790.42743762215
4	163070	30.31	792.52386676127
4	163627	30.41	794.62522489581
4	164184	30.51	796.73332129888
4	164741	30.61	798.84964020457
4	165298	30.71	800.97539920182
4	165855	30.81	803.11159713763
4	166412	30.91	805.25905341444
4	166977	31.01	807.41844022765
4	167534	31.11	809.59030901162
4	168091	31.21	811.77511213458
4	168648	31.31	813.97322069604
4	169205	31.41	816.18493912685
4	169762	31.51	818.41051716636
4	170319	31.61	820.65015968779
4	170876	31.71	822.90403475857
4	171433	31.81	825.1722802525
4	171990	31.91	827.45500833342
4	172555	32.01	829.75213080502
4	173112	32.11	832.06297174067
4	173669	32.21	834.38623633618
4	174226	32.31	836.72009972078
4	174783	32.41	839.06229991478
4	175340	32.51	841.41023099281
4	175897	32.61	843.76103569303
4	176454	32.71	846.1117837457
4	177011	32.81	848.45980757722
4	177568	32.91	850.80290182304
4	178133	33.01	853.13925731611
4	178690	33.11	855.46738990933
4	179247	33.21	857.78608208512
4	179804	33.31	860.09433505503
4	180361	33.41	862.39132946464
4	180918	33.51	864.67639315794
4	181475	33.61	866.94897473291
4	182032	33.71	869.20862184782
4	182589	33.81	871.4549634249
4	183146	33.91	873.68769505116
4	183711	34.01	875.90656700188
4	184268	34.11	878.11137441585
4	184825	34.21	880.30194923549
4	185382	34.31	882.47815359508
4	185939	34.41	884.6398753372
4	186496	34.51	886.78720262911
4	187053	34.61	888.92081131704
4	187610	34.71	891.04199613742
4	188167	34.81	893.15258190917
4	188724	34.91	895.2548305741
4	189289	35.01	897.35134803183
4	189846	35.11	899.44499152901
4	190403	35.21	901.5386913519
4	190960	35.31	903.63511512893
4	191517	35.41	905.7364682726
4	192074	35.51	907.84455998931
4	192631	35.61	909.96087445848
4	193188	35.71	912.08662922413
4	193745	35.81	914.22282309647
4	194302	35.91	916.37027544772
4	194867	36.01	918.52965844851
4	195424	36.11	920.70152351288
4	195981	36.21	922.88632299237
4	196538	36.31	925.08442797283
4	197095	36.41	927.29614287388
4	197652	36.51	929.52171742566
4	198209	36.61	931.76135649385
4	198766	36.71	934.01522813967
4	199323	36.81	936.28347023185
4	199880	36.91	938.56619493019
4	200445	37.01	940.86331405665
4	201002	37.11	943.17415173516
4	201559	37.21	945.49741320414
4	202116	37.31	947.83127362544
4	202673	37.41	950.17347104318
4	203230	37.51	952.5213995482
4	203787	37.61	954.87220188819
4	204344	37.71	957.22294778305
4	204901	37.81	959.57096962467
4	205458	37.91	961.91406201836
4	206023	38.01	964.25041577232
4	206580	38.11	966.57854671912
4	207137	38.21	968.89723732456
4	207694	38.31	971.2054887865
4	208251	38.41	973.50248173932
4	208808	38.51	975.78754401783
4	209365	38.61	978.06012421244
4	209922	38.71	980.31976997524
4	210479	38.81	982.56611022341
4	211036	38.91	984.79884053975
4	211601	39.01	987.01771119617
4	212158	39.11	989.22251732863
4	212715	39.21	991.41309087726
4	213272	39.31	993.58929397445
4	213829	39.41	995.75101446128
4	214386	39.51	997.8983405118
4	214943	39.61	1000.031947991
4	215500	39.71	1002.1531316511
4	216057	39.81	1004.2637163232
4	216614	39.91	1006.3659639578
4	217179	40.01	1008.4624804607
4	217736	40.11	1010.556123082
4	218293	40.21	1012.6498221041
4	218850	40.31	1014.7462451427
4	219407	40.41	1016.847597599
4	219964	40.51	1018.9556886703
4	220521	40.61	1021.0720025285
4	221078	40.71	1023.1977567114
4	221635	40.81	1025.3339500241
4	222192	40.91	1027.4814018348
4	222757	41.01	1029.6407843105
4	223314	41.11	1031.8126488626
4	223871	41.21	1033.9974478404
4	224428	41.31	1036.1955523276
4	224985	41.41	1038.4072667426
4	225542	41.51	1040.632840814
4	226099	41.61	1042.8724794067
4	226656	41.71	1045.1263505808
4	227213	41.81	1047.3945922045
4	227770	41.91	1049.677316437
4	228335	42.01	1051.9744351028
4	228892	42.11	1054.2852723327
4	229449	42.21	1056.6085333711
4	230006	42.31	1058.9423933843
4	230563	42.41	1061.2845904197
4	231120	42.51	1063.6325185704
4	231677	42.61	1065.9833205853
4	232234	42.71	1068.334066183
4	232791	42.81	1070.6820877506
4	233348	42.91	1073.0251798892
4	233913	43.01	1075.3615334037
4	234470	43.11	1077.6896641237
4	235027	43.21	1080.0083545129
4	235584	43.31	1082.3166057672
4	236141	43.41	1084.6135985194
4	236698	43.51	1086.898660603
4	237255	43.61	1089.1712406076
4	237812	43.71	1091.4308861842
4	238369	43.81	1093.6772262493
4	238926	43.91	1095.9099563852
4	239491	44.01	1098.1288268634
4	240048	44.11	1100.3336328194
4	240605	44.21	1102.524206193
4	241162	44.31	1104.7004091163
4	241719	44.41	1106.8621294303
4	242276	44.51	1109.0094553098
4	242833	44.61	1111.1430626226
4	243390	44.71	1113.2642461229
4	243947	44.81	1115.3748306435
4	244504	44.91	1117.4770781363
4	245069	45.01	1119.5735945076
4	245626	45.11	1121.6672370083
4	246183	45.21	1123.7609359201
4	246740	45.31	1125.857358857
4	247297	45.41	1127.9587112187
4	247854	45.51	1130.0668022011
4	248411	45.61	1132.1831159752
4	248968	45.71	1134.3088700778
4	249525	45.81	1136.4450633135
4	250082	45.91	1138.5925150496
4	250647	46.01	1140.7518974531
4	251204	46.11	1142.9237619346
4	251761	46.21	1145.1085608433
4	252318	46.31	1147.3066652626
4	252875	46.41	1149.5183796106
4	253432	46.51	1151.743953616
4	253989	46.61	1153.9835921431
4	254546	46.71	1156.2374632523
4	255103	46.81	1158.5057048114
4	255660	46.91	1160.7884289798
4	256225	47.01	1163.0855475821
4	256782	47.11	1165.3963847503
4	257339	47.21	1167.7196457294
4	257896	47.31	1170.0535056864
4	258453	47.41	1172.3957026691
4	259010	47.51	1174.743630771
4	259567	47.61	1177.0944327412
4	260124	47.71	1179.4451782979
4	260681	47.81	1181.7931998278
4	261238	47.91	1184.1362919313
4	261803	48.01	1186.4726454127
4	262360	48.11	1188.8007761016
4	262917	48.21	1191.119466461
4	263474	48.31	1193.4277176866
4	264031	48.41	1195.7247104112
4	264588	48.51	1198.009772468
4	265145	48.61	1200.2823524464
4	265702	48.71	1202.5419979973
4	266259	48.81	1204.7883380373
4	266816	48.91	1207.0210681484
4	267381	49.01	1209.239938602
4	267938	49.11	1211.4447445336
4	268495	49.21	1213.6353178831
4	269052	49.31	1215.8115207825
4	269609	49.41	1217.9732410727
4	270166	49.51	1220.1205669287
4	270723	49.61	1222.2541742185
4	271280	49.71	1224.3753576968
4	271837	49.81	1226.4859421966
4	272394	49.91	1228.5881896698
4	272959	50.01	1230.6847060231
4	273516	50.11	1232.7783485071
4	274073	50.21	1234.8720474038
4	274630	50.31	1236.9684703266
4	275187	50.41	1239.0698226753
4	275744	50.51	1241.1779136455
4	276301	50.61	1243.2942274079
4	276858	50.71	1245.4199814995
4	277415	50.81	1247.5561747245
4	277972	50.91	1249.7036264505
4	278537	51.01	1251.863008844
4	279094	51.11	1254.0348733158
4	279651	51.21	1256.2196722149
4	280208	51.31	1258.4177766249
4	280765	51.41	1260.6294909637
4	281322	51.51	1262.8550649599
4	281879	51.61	1265.094703478
4	282436	51.71	1267.3485745783
4	282993	51.81	1269.6168161285
4	283550	51.91	1271.8995402881
4	284115	52.01	1274.1966588816
4	284672	52.11	1276.5074960413
4	285229	52.21	1278.8307570122
4	285786	52.31	1281.1646169615
4	286343	52.41	1283.506813937
4	286900	52.51	1285.8547420321
4	287457	52.61	1288.2055439962
4	288014	52.71	1290.5562895473
4	288571	52.81	1292.9043110719
4	289128	52.91	1295.2474031706
4	289693	53.01	1297.5837566475
4	290250	53.11	1299.9118873321
4	290807	53.21	1302.2305776873
4	291364	53.31	1304.5388289091
4	291921	53.41	1306.8358216298
4	292478	53.51	1309.120883683
4	293035	53.61	1311.3934636577
4	293592	53.71	1313.6531092051
4	294149	53.81	1315.8994492416
4	294706	53.91	1318.1321793493
4	295271	54.01	1320.3510497995
4	295828	54.11	1322.5558557278
4	296385	54.21	1324.746429074
4	296942	54.31	1326.9226319701
4	297499	54.41	1329.084352257
4	298056	54.51	1331.2316781097
4	298613	54.61	1333.3652853964
4	299170	54.71	1335.4864688717
4	299727	54.81	1337.5970533685
4	300284	54.91	1339.6993008391
4	300849	55.01	1341.7958171898
4	301406	55.11	1343.8894596716
4	301963	55.21	1345.9831585662
4	302520	55.31	1348.0795814871
4	303077	55.41	1350.180933834
4	303634	55.51	1352.2890248025
4	304191	55.61	1354.4053385633
4	304748	55.71	1356.5310926534
4	305305	55.81	1358.667285877
4	305862	55.91	1360.8147376015
4	306427	56.01	1362.9741199936
4	306984	56.11	1365.1459844641
4	307541	56.21	1367.3307833619
4	308098	56.31	1369.5288877706
4	308655	56.41	1371.7406021081
4	309212	56.51	1373.9661761031
4	309769	56.61	1376.20581462
4	310326	56.71	1378.459685719
4	310883	56.81	1380.727927268
4	311440	56.91	1383.0106514263
4	312005	57.01	1385.3077700187
4	312562	57.11	1387.6186071772
4	313119	57.21	1389.941868147
4	313676	57.31	1392.2757280952
4	314233	57.41	1394.6179250697
4	314790	57.51	1396.9658531639
4	315347	57.61	1399.3166551271
4	315904	57.71	1401.6674006774
4	316461	57.81	1404.0154222014
4	317018	57.91	1406.3585142994
4	317583	58.01	1408.6948677757
4	318140	58.11	1411.0229984596
4	318697	58.21	1413.3416888143
4	319254	58.31	1415.6499400355
4	319811	58.41	1417.9469327557
4	320368	58.51	1420.2319948084
4	320925	58.61	1422.5045747826
4	321482	58.71	1424.7642203295
4	322039	58.81	1427.0105603655
4	322596	58.91	1429.2432904727
4	323161	59.01	1431.4621609225
4	323718	59.11	1433.6669668504
4	324275	59.21	1435.8575401961
4	324832	59.31	1438.0337430917
4	325389	59.41	1440.1954633781
4	325946	59.51	1442.3427892305
4	326503	59.61	1444.4763965167
4	327060	59.71	1446.5975799916
4	327617	59.81	1448.708164488
4	328174	59.91	1450.8104119582
3	232	1.11	22.222221380388
3	788	1.21	22.222221400033
3	1344	1.31	22.222221430895
3	1900	1.41	22.222221470405
3	2456	1.51	22.222221516302
3	3012	1.61	22.222221566615
3	3568	1.71	22.222221619648
3	4124	1.81	22.222221673961
3	4680	1.91	22.22222172835
3	5244	2.01	22.222221781827
3	5800	2.11	22.222221833594
3	6356	2.21	22.222221883033
3	6912	2.31	22.222221929673
3	7468	2.41	22.222221973181
3	8024	2.51	22.22222201334
3	8580	2.61	22.22222205003
3	9136	2.71	22.222222083218
3	9692	2.81	22.222222112937
3	10248	2.91	22.222222139276
3	10812	3.01	22.222222162372
3	11368	3.11	22.222222182391
3	11924	3.21	22.222222199529
3	12480	3.31	22.222222213995
3	13036	3.41	22.222222226009
3	13592	3.51	22.222222235797
3	14148	3.61	22.222222243584
3	14704	3.71	22.222222249588
3	15260	3.81	22.222222254023
3	15816	3.91	22.22222225709
3	16380	4.01	22.222222258982
3	16936	4.11	22.222222259874
3	17492	4.21	22.22222225993
3	18048	4.31	22.2222222593
3	18604	4.41	22.222222258118
3	19160	4.51	22.222222256505
3	19716	4.61	22.222222254566
3	20272	4.71	22.222222252396
3	20828	4.81	22.222222250075
3	21384	4.91	22.222222247671
3	21949	5.01	22.222222245242
3	22506	5.11	22.222290507125
3	23063	5.21	22.226504077641
3	23620	5.31	22.240220338524
3	24177	5.41	22.267500757653
3	24734	5.51	22.311166408855
3	25291	5.61	22.372508246834
3	25848	5.71	22.449772173803
3	26405	5.81	22.540103259952
3	26962	5.91	22.641153967919
3	27527	6.01	22.750998499419
3	28084	6.11	22.868057029105
3	28641	6.21	22.991033549938
3	29198	6.31	23.118864884746
3	29755	6.41	23.250678857945
3	30312	6.51	23.385758398132
3	30869	6.61	23.522833432233
3	31426	6.71	23.657796347927
3	31983	6.81	23.785829581157
3	32540	6.91	23.902426182221
3	33105	7.01	24.003469344582
3	33662	7.11	24.085300499944
3	34219	7.21	24.144775797594
3	34776	7.31	24.179310887614
3	35333	7.41	24.18693697487
3	35890	7.51	24.167648012512
3	36447	7.61	24.124876590017
3	37004	7.71	24.062841371271
3	37561	7.81	23.985003130021
3	38118	7.91	23.894200906128
3	38683	8.01	23.792763701114
3	39240	8.11	23.682602107418
3	39797	8.21	23.565283476299
3	40354	8.31	23.442093581698
3	40911	8.41	23.314087206082
3	41468	8.51	23.182129638453
3	42025	8.61	23.046930717174
3	42582	8.71	22.90907275694
3	43139	8.81	22.769033458618
3	43696	8.91	22.627204703306
3	44261	9.01	22.483907969993
3	44818	9.11	22.339406983423
3	45375	9.21	22.193918089742
3	45932	9.31	22.047618768141
3	46489	9.41	21.900654613374
3	47046	9.51	21.753242751854
3	47603	9.61	21.609901385757
3	48160	9.71	21.477532883517
3	48717	9.81	21.362073971413
3	49274	9.91	21.268410541013
3	49839	10.01	21.200386497448
3	50396	10.11	21.160826131916
3	50953	10.21	21.151517345739
3	51510	10.31	21.170320646314
3	52067	10.41	21.212693656992
3	52624	10.51	21.274402039281
3	53181	10.61	21.351972160799
3	53738	10.71	21.442554433126
3	54295	10.81	21.543811201247
3	54852	10.91	21.653824773844
3	55417	11.01	21.771021976106
3	55974	11.11	21.894112256751
3	56531	11.21	22.022036914228
3	57088	11.31	22.15392744452
3	57645	11.41	22.289071371833
3	58202	11.51	22.426884217862
3	58759	11.61	22.566886506821
3	59316	11.71	22.708684901566
3	59873	11.81	22.851956728639
3	60430	11.91	22.996030636022
3	60995	12.01	23.135871741664
3	61552	12.11	23.265091831195
3	62109	12.21	23.37815370659
3	62666	12.31	23.470398479481
3	63223	12.41	23.538058615042
3	63780	12.51	23.578257676094
3	64337	12.61	23.589039899577
3	64894	12.71	23.571771817424
3	65451	12.81	23.530658220569
3	66008	12.91	23.469982996268
3	66573	13.01	23.39326042415
3	67130	13.11	23.303373437532
3	67687	13.21	23.20268704586
3	68244	13.31	23.093141380613
3	68801	13.41	22.97632802535
3	69358	13.51	22.853552632938
3	69915	13.61	22.725886293488
3	70472	13.71	22.594207673951
3	71029	13.81	22.459237587264
3	71586	13.91	22.321567351098
3	72151	14.01	22.181682051897
3	72708	14.11	22.039979629502
3	73265	14.21	21.896786533182
3	73822	14.31	21.752370565044
3	74379	14.41	21.606990468916
3	74936	14.51	21.46377531614
3	75493	14.61	21.329003640752
3	76050	14.71	21.208703411767
3	76607	14.81	21.107966374326
3	77164	14.91	21.030937646541
3	77729	15.01	20.980819133086
3	78286	15.11	20.959864153028
3	78843	15.21	20.968113302143
3	79400	15.31	21.001828232614
3	79957	15.41	21.056433973525
3	80514	15.51	21.128177455263
3	81071	15.61	21.213979853553
3	81628	15.71	21.311315460134
3	82185	15.81	21.418112314529
3	82742	15.91	21.532670687482
3	83307	16.01	21.65359620899
3	83864	16.11	21.779745009989
3	84421	16.21	21.910178719438
3	84978	16.31	22.04412754625
3	85535	16.41	22.180959993615
3	86092	16.51	22.320158014196
3	86649	16.61	22.461296628745
3	87206	16.71	22.604027206256
3	87763	16.81	22.748063747876
3	88320	16.91	22.893121062247
3	88885	17.01	23.035415892366
3	89442	17.11	23.168450652444
3	89999	17.21	23.28637522879
3	90556	17.31	23.384255235879
3	91113	17.41	23.458083279214
3	91670	17.51	23.504776599185
3	92227	17.61	23.522191087294
3	92784	17.71	23.510795234811
3	93341	17.81	23.474498911582
3	93898	17.91	23.417775529511
3	94463	18.01	23.344294844447
3	95020	18.11	23.257067334362
3	95577	18.21	23.158562639743
3	96134	18.31	23.050806725964
3	96691	18.41	22.935461590275
3	97248	18.51	22.813890649294
3	97805	18.61	22.687212379529
3	98362	18.71	22.556344321276
3	98919	18.81	22.422039177162
3	99476	18.91	22.284914425505
3	100041	19.01	22.145476613593
3	100598	19.11	22.004141286635
3	101155	19.21	21.861249336433
3	101712	19.31	21.717080413001
3	102269	19.41	21.571909863106
3	102826	19.51	21.429278340793
3	103383	19.61	21.295604178514
3	103940	19.71	21.176803340552
3	104497	19.81	21.077868481133
3	105054	19.91	21.002857998561
3	105619	20.01	20.954898781713
3	106176	20.11	20.936175392548
3	106733	20.21	20.946407816827
3	107290	20.31	20.981749723707
3	107847	20.41	21.03769015195
3	108404	20.51	21.110528542171
3	108961	20.61	21.197229146774
3	109518	20.71	21.295301595376
3	110075	20.81	21.402702916871
3	110632	20.91	21.517757163382
3	111197	21.01	21.639089473919
3	111754	21.11	21.765571983607
3	112311	21.21	21.896279450413
3	112868	21.31	22.030452853606
3	113425	21.41	22.167469531823
3	113982	21.51	22.306818685871
3	114539	21.61	22.448081282503
3	115096	21.71	22.590913568504
3	115653	21.81	22.735033546511
3	116210	21.91	22.880162447437
3	116775	22.01	23.022670267421
3	117332	22.11	23.156108357089
3	117889	22.21	23.274585173836
3	118446	22.31	23.373129675149
3	119003	22.41	23.447702381669
3	119560	22.51	23.495192775121
[...]
166	325641	59.463885020158	7
166	326198	59.563896446954	7
166	326755	59.663894872449	7
166	327312	59.763893296568	7
166	327869	59.863891719242	7
166	328426	59.96389014042	7
165	1274	1.297802801246	7
165	1830	1.3978016018	7
165	2386	1.497800402354	7
165	2942	1.597799202908	7
165	3498	1.697811003462	7
165	4054	1.797809804016	7
165	4610	1.89780860457	7
165	5166	1.997807405124	7
165	5730	2.097806205678	7
165	6286	2.197805006232	7
165	6842	2.297803806786	7
165	7398	2.39780260734	7
165	7954	2.497801407894	7
165	8510	2.597800208448	7
165	9066	2.697799009002	7
165	9622	2.797810809556	7
165	10178	2.89780961011	7
165	10734	2.997808410664	7
165	11298	3.097807211218	7
165	11854	3.197806011772	7
165	12410	3.297804812326	7
165	12966	3.39780361288	7
165	13522	3.497802413434	7
165	14078	3.597801213988	7
165	14634	3.697800014542	7
165	15190	3.797811815096	7
165	15746	3.89781061565	7
165	16302	3.997809416204	7
165	16866	4.097808216758	7
165	17422	4.197807017312	7
165	17978	4.297805817866	7
165	18534	4.39780461842	7
165	19090	4.497803418974	7
165	19646	4.597802219528	7
165	20202	4.697801020082	7
165	20758	4.797799820636	7
165	21314	4.89781162119	7
165	21870	4.997810421744	7
165	22435	5.097809222298	7
165	22992	5.197808022854	7
165	23549	5.297806823416	7
165	24106	5.397805623992	7
165	24663	5.497804424598	7
165	25220	5.597803225253	7
165	25777	5.697802025975	7
165	26334	5.797800826778	7
165	26891	5.897799627679	7
165	27448	5.99781142869	7
165	28013	6.097810229819	7
165	28570	6.197809031076	7
165	29127	6.297807832465	7
165	29684	6.397806633994	7
165	30241	6.497805435669	7
165	30798	6.597804237492	7
165	31355	6.697803039467	7
165	31912	6.797801841587	7
165	32469	6.897800643853	7
165	33026	6.997799446252	7
165	33591	7.097811248769	7
165	34148	7.197810051387	7
165	34705	7.297808854084	7
165	35262	7.397807656839	7
165	35819	7.497806459623	7
165	36376	7.597805262411	7
165	36933	7.697804065181	7
165	37490	7.797802867913	7
165	38047	7.897801670591	7
165	38604	7.9978004732	7
165	39169	8.097799275732	7
165	39726	8.197811078176	7
165	40283	8.297809880523	7
165	40840	8.397808682768	7
165	41397	8.497807484905	7
165	41954	8.597806286928	7
165	42511	8.697805088835	7
165	43068	8.797803890619	7
165	43625	8.897802692276	7
165	44182	8.997801493808	7
165	44747	9.097800295207	7
165	45304	9.197799096473	7
165	45861	9.297810897604	7
165	46418	9.397809698597	7
165	46975	9.497808499448	7
165	47532	9.597807300158	7
165	48089	9.697806100731	7
165	48646	9.797804901179	7
165	49203	9.897803701514	7
165	49760	9.997802501758	7
165	50325	10.097801301933	7
165	50882	10.197800102069	7
165	51439	10.297798902191	7
165	51996	10.397810702328	7
165	52553	10.497809502502	7
165	53110	10.597808302732	7
165	53667	10.697807103035	7
165	54224	10.797805903423	7
165	54781	10.897804703906	7
165	55338	10.997803504494	7
165	55903	11.097802305195	7
165	56460	11.197801106012	7
165	57017	11.297799906955	7
165	57574	11.397811708026	7
165	58131	11.497810509229	7
165	58688	11.597809310571	7
165	59245	11.697808112049	7
165	59802	11.797806913671	7
165	60359	11.897805715434	7
165	60916	11.997804517343	7
165	61481	12.097803319391	7
165	62038	12.197802121572	7
165	62595	12.297800923871	7
165	63152	12.397799726266	7
165	63709	12.497811528737	7
165	64266	12.597810331256	7
165	64823	12.697809133796	7
165	65380	12.797807936328	7
165	65937	12.897806738831	7
165	66494	12.997805541284	7
165	67059	13.097804343673	7
165	67616	13.197803145982	7
165	68173	13.297801948202	7
165	68730	13.397800750323	7
165	69287	13.497799552337	7
165	69844	13.597811354239	7
165	70401	13.697810156023	7
165	70958	13.797808957682	7
165	71515	13.897807759213	7
165	72072	13.997806560614	7
165	72637	14.097805361879	7
165	73194	14.197804163006	7
165	73751	14.297802963995	7
165	74308	14.397801764838	7
165	74865	14.49780056554	7
165	75422	14.597799366099	7
165	75979	14.697811166523	7
165	76536	14.797809966826	7
165	77093	14.897808767025	7
165	77650	14.997807567146	7
165	78215	15.097806367213	7
165	78772	15.19780516725	7
165	79329	15.29780396729	7
165	79886	15.397802767353	7
165	80443	15.497801567463	7
165	81000	15.597800367635	7
165	81557	15.697799167884	7
165	82114	15.797810968221	7
165	82671	15.897809768656	7
165	83228	15.997808569199	7
165	83793	16.097807369853	7
165	84350	16.197806170625	7
165	84907	16.297804971522	7
165	85464	16.397803772545	7
165	86021	16.4978025737	7
165	86578	16.59780137499	7
165	87135	16.69780017642	7
165	87692	16.797798977988	7
165	88249	16.897810779697	7
165	88806	16.997809581551	7
165	89371	17.097808383546	7
165	89928	17.197807185674	7
165	90485	17.297805987921	7
165	91042	17.397804790266	7
165	91599	17.497803592688	7
165	92156	17.597802395161	7
165	92713	17.697801197655	7
165	93270	17.797800000146	7
165	93827	17.897811802607	7
165	94384	17.997810605018	7
165	94949	18.097809407364	7
165	95506	18.19780820963	7
165	96063	18.297807011804	7
165	96620	18.397805813878	7
165	97177	18.497804615842	7
165	97734	18.597803417691	7
165	98291	18.697802219419	7
165	98848	18.797801021019	7
165	99405	18.897799822488	7
165	99962	18.997811623824	7
165	100527	19.097810425021	7
165	101084	19.197809226077	7
165	101641	19.297808026989	7
165	102198	19.397806827756	7
165	102755	19.497805628375	7
165	103312	19.597804428849	7
165	103869	19.697803229187	7
165	104426	19.797802029402	7
165	104983	19.897800829513	7
165	105540	19.997799629542	7
165	106105	20.097811429516	7
165	106662	20.197810229462	7
165	107219	20.297809029408	7
165	107776	20.397807829379	7
165	108333	20.497806629394	7
165	108890	20.597805429469	7
165	109447	20.697804229619	7
165	110004	20.797803029854	7
165	110561	20.897801830185	7
165	111118	20.997800630622	7
165	111683	21.09779943117	7
165	112240	21.197811231836	7
165	112797	21.297810032623	7
165	113354	21.397808833534	7
165	113911	21.497807634575	7
165	114468	21.59780643575	7
165	115025	21.697805237061	7
165	115582	21.79780403851	7
165	116139	21.897802840102	7
165	116696	21.997801641833	7
165	117261	22.097800443704	7
165	117818	22.197799245705	7
165	118375	22.297811047824	7
165	118932	22.397809850041	7
165	119489	22.497808652335	7
165	120046	22.597807454678	7
165	120603	22.697806257044	7
165	121160	22.797805059402	7
165	121717	22.89780386173	7
165	122274	22.99780266401	7
165	122839	23.097801466221	7
165	123396	23.197800268352	7
165	123953	23.297799070391	7
165	124510	23.397810872329	7
165	125067	23.497809674156	7
165	125624	23.597808475866	7
165	126181	23.697807277453	7
165	126738	23.797806078915	7
165	127295	23.897804880243	7
165	127852	23.997803681436	7
165	128417	24.09780248249	7
165	128974	24.197801283402	7
165	129531	24.297800084171	7
165	130088	24.397798884791	7
165	130645	24.497810685266	7
165	131202	24.597809485595	7
165	131759	24.697808285786	7
165	132316	24.797807085855	7
165	132873	24.897805885819	7
165	133430	24.9978046857	7
165	133995	25.097803485526	7
165	134552	25.197802285324	7
165	135109	25.297801085119	7
165	135666	25.397799884939	7
165	136223	25.497811684804	7
165	136780	25.59781048473	7
165	137337	25.69780928473	7
165	137894	25.797808084816	7
165	138451	25.897806884998	7
165	139008	25.997805685284	7
165	139573	26.097804485681	7
165	140130	26.197803286193	7
165	140687	26.297802086828	7
165	141244	26.39780088759	7
165	141801	26.49779968848	7
165	142358	26.597811489502	7
165	142915	26.697810290662	7
165	143472	26.797809091959	7
165	144029	26.897807893397	7
165	144586	26.997806694976	7
165	145151	27.097805496694	7
165	145708	27.197804298543	7
165	146265	27.297803100509	7
165	146822	27.397801902574	7
165	147379	27.497800704717	7
165	147936	27.597799506909	7
165	148493	27.697811309123	7
165	149050	27.797810111334	7
165	149607	27.897808913512	7
165	150164	27.997807715641	7
165	150729	28.097806517703	7
165	151286	28.197805319685	7
165	151843	28.297804121574	7
165	152400	28.397802923361	7
165	152957	28.497801725039	7
165	153514	28.597800526601	7
165	154071	28.697799328039	7
165	154628	28.79781112935	7
165	155185	28.897809930531	7
165	155742	28.997808731576	7
165	156307	29.097807532483	7
165	156864	29.197806333246	7
165	157421	29.297805133868	7
165	157978	29.397803934342	7
165	158535	29.497802734669	7
165	159092	29.597801534851	7
165	159649	29.697800334897	7
165	160206	29.797799134818	7
165	160763	29.897810934638	7
165	161320	29.997809734377	7
165	161885	30.097808534058	7
165	162442	30.197807333712	7
165	162999	30.297806133372	7
165	163556	30.397804933064	7
165	164113	30.497803732827	7
165	164670	30.597802532692	7
165	165227	30.697801332698	7
165	165784	30.797800132878	7
165	166341	30.897798933268	7
165	166898	30.99781073391	7
165	167463	31.097809534839	7
165	168020	31.197808336094	7
165	168577	31.297807137718	7
165	169134	31.39780593975	7
165	169691	31.49780474223	7
165	170248	31.597803545201	7
165	170805	31.697802348704	7
165	171362	31.797801152784	7
165	171919	31.897799957483	7
165	172476	31.997811762846	7
165	173041	32.097810568911	7
165	173598	32.197809375713	7
165	174155	32.297808183273	7
165	174712	32.397806991598	7
165	175269	32.49780580068	7
165	175826	32.597804610492	7
165	176383	32.697803420988	7
165	176940	32.797802232106	7
165	177497	32.897801043766	7
165	178054	32.997799855879	7
165	178619	33.097811668346	7
165	179176	33.197810481058	7
165	179733	33.297809293904	7
165	180290	33.397808106764	7
165	180847	33.497806919518	7
165	181404	33.59780573204	7
165	181961	33.697804544202	7
165	182518	33.797803355876	7
165	183075	33.897802166933	7
165	183632	33.997800977241	7
165	184197	34.097799786666	7
165	184754	34.197811595077	7
165	185311	34.297810402342	7
165	185868	34.397809208326	7
165	186425	34.497808012898	7
165	186982	34.597806815929	7
165	187539	34.697805617301	7
165	188096	34.797804416907	7
165	188653	34.897803214654	7
165	189210	34.997802010467	7
165	189775	35.097800804293	7
165	190332	35.197799596096	7
165	190889	35.297811385859	7
165	191446	35.397810173581	7
165	192003	35.497808959277	7
165	192560	35.597807742969	7
165	193117	35.697806524688	7
165	193674	35.797805304476	7
165	194231	35.89780408238	7
165	194788	35.99780285845	7
165	195353	36.097801632741	7
165	195910	36.197800405314	7
165	196467	36.297799176231	7
165	197024	36.397810945556	7
165	197581	36.497809713358	7
165	198138	36.597808479708	7
165	198695	36.697807244675	7
165	199252	36.797806008333	7
165	199809	36.897804770757	7
165	200366	36.997803532023	7
165	200931	37.097802292201	7
165	201488	37.197801051356	7
165	202045	37.297799809543	7
165	202602	37.397811566803	7
165	203159	37.497810323159	7
165	203716	37.597809078617	7
165	204273	37.697807833165	7
165	204830	37.797806586771	7
165	205387	37.897805339391	7
165	205944	37.997804090968	7
165	206509	38.097802841436	7
165	207066	38.19780159072	7
165	207623	38.29780033874	7
165	208180	38.397799085411	7
165	208737	38.497810830642	7
165	209294	38.597809574342	7
165	209851	38.697808316414	7
165	210408	38.797807056763	7
165	210965	38.897805795287	7
165	211522	38.997804531886	7
165	212087	39.097803266461	7
165	212644	39.197801998908	7
165	213201	39.297800729126	7
165	213758	39.397799457012	7
165	214315	39.497811182467	7
165	214872	39.597809905388	7
165	215429	39.697808625685	7
165	215986	39.797807343281	7
165	216543	39.897806058113	7
165	217100	39.997804770134	7
165	217665	40.097803479317	7
165	218222	40.197802185653	7
165	218779	40.297800889156	7
165	219336	40.397799589849	7
165	219893	40.497811287772	7
165	220450	40.597809982975	7
165	221007	40.697808675517	7
165	221564	40.797807365463	7
165	222121	40.897806052883	7
165	222678	40.997804737855	7
165	223243	41.097803420456	7
165	223800	41.197802100772	7
165	224357	41.297800778886	7
165	224914	41.397799454888	7
165	225471	41.49781112887	7
165	226028	41.597809800922	7
165	226585	41.697808471141	7
165	227142	41.797807139617	7
165	227699	41.897805806449	7
165	228256	41.997804471733	7
165	228821	42.09780313556	7
165	229378	42.197801798018	7
165	229935	42.297800459178	7
165	230492	42.397799119101	7
165	231049	42.49781077783	7
165	231606	42.59780943539	7
165	232163	42.697808091787	7
165	232720	42.797806747008	7
165	233277	42.897805401026	7
165	233834	42.997804053802	7
165	234399	43.097802705285	7
165	234956	43.197801355421	7
165	235513	43.297800004144	7
165	236070	43.397811651384	7
165	236627	43.49781029707	7
165	237184	43.597808941122	7
165	237741	43.697807583461	7
165	238298	43.797806224005	7
165	238855	43.897804862669	7
165	239412	43.997803499367	7
165	239977	44.097802134011	7
165	240534	44.197800766517	7
165	241091	44.297799396792	7
165	241648	44.397811024747	7
165	242205	44.497809650295	7
165	242762	44.597808273346	7
165	243319	44.697806893825	7
165	243876	44.797805511666	7
165	244433	44.897804126818	7
165	244990	44.997802739244	7
165	245555	45.09780134893	7
165	246112	45.197799955877	7
165	246669	45.297811560109	7
165	247226	45.39781016166	7
165	247783	45.497808760584	7
165	248340	45.597807356938	7
165	248897	45.697805950788	7
165	249454	45.79780454221	7
165	250011	45.897803131287	7
165	250568	45.9978017181	7
165	251133	46.097800302742	7
165	251690	46.197798885304	7
165	252247	46.297810465879	7
165	252804	46.397809044567	7
165	253361	46.497807621465	7
165	253918	46.597806196671	7
165	254475	46.697804770289	7
165	255032	46.797803342418	7
165	255589	46.897801913164	7
165	256146	46.997800482627	7
165	256711	47.097799050911	7
165	257268	47.197810618105	7
165	257825	47.297809184289	7
165	258382	47.397807749532	7
165	258939	47.49780631388	7
165	259496	47.597804877365	7
165	260053	47.697803439999	7
165	260610	47.797802001777	7
165	261167	47.897800562674	7
165	261724	47.997799122659	7
165	262289	48.097810681687	7
165	262846	48.197809239705	7
165	263403	48.297807796654	7
165	263960	48.397806352469	7
165	264517	48.497804907082	7
165	265074	48.597803460418	7
165	265631	48.697802012404	7
165	266188	48.79780056296	7
165	266745	48.897799112006	7
165	267302	48.99781065946	7
165	267867	49.097809205239	7
165	268424	49.19780774926	7
165	268981	49.297806291435	7
165	269538	49.397804831678	7
165	270095	49.497803369904	7
165	270652	49.597801906029	7
165	271209	49.697800439981	7
165	271766	49.797798971695	7
165	272323	49.897810501122	7
165	272880	49.997809028229	7
165	273445	50.097807553002	7
165	274002	50.197806075448	7
165	274559	50.297804595591	7
165	275116	50.39780311347	7
165	275673	50.497801629137	7
165	276230	50.597800142654	7
165	276787	50.697811654091	7
165	277344	50.797810163522	7
165	277901	50.897808671032	7
165	278458	50.997807176706	7
165	279023	51.097805680637	7
165	279580	51.197804182915	7
165	280137	51.297802683638	7
165	280694	51.397801182906	7
165	281251	51.497799680814	7
165	281808	51.597811177465	7
165	282365	51.697809672964	7
165	282922	51.797808167411	7
165	283479	51.897806660911	7
165	284036	51.997805153568	7
165	284601	52.09780364548	7
165	285158	52.197802136743	7
165	285715	52.297800627439	7
165	286272	52.39779911763	7
165	286829	52.497810607368	7
165	287386	52.597809096686	7
165	287943	52.697807585594	7
165	288500	52.797806074086	7
165	289057	52.897804562139	7
165	289614	52.997803049722	7
165	290179	53.097801536789	7
165	290736	53.197800023287	7
165	291293	53.297811509159	7
165	291850	53.397809994339	7
165	292407	53.497808478758	7
165	292964	53.597806962341	7
165	293521	53.697805445015	7
165	294078	53.7978039267	7
165	294635	53.897802407315	7
165	295192	53.997800886775	7
165	295757	54.097799365001	7
165	296314	54.197810841905	7
165	296871	54.297809317401	7
165	297428	54.397807791405	7
165	297985	54.497806263827	7
165	298542	54.597804734584	7
165	299099	54.697803203601	7
165	299656	54.797801670814	7
165	300213	54.897800136173	7
165	300770	54.997811599645	7
165	301335	55.097810061217	7
165	301892	55.197808520892	7
165	302449	55.297806978693	7
165	303006	55.397805434659	7
165	303563	55.49780388884	7
165	304120	55.597802341297	7
165	304677	55.697800792097	7
165	305234	55.797799241316	7
165	305791	55.897810689038	7
165	306348	55.997809135345	7
165	306913	56.097807580329	7
165	307470	56.197806024079	7
165	308027	56.297804466692	7
165	308584	56.397802908265	7
165	309141	56.497801348894	7
165	309698	56.597799788679	7
165	310255	56.697811227723	7
165	310812	56.797809666125	7
165	311369	56.897808103991	7
165	311926	56.99780654142	7
165	312491	57.097804978511	7
165	313048	57.197803415357	7
165	313605	57.297801852035	7
165	314162	57.397800288613	7
165	314719	57.497798725138	7
165	315276	57.597810161641	7
165	315833	57.697808598129	7
165	316390	57.797807034596	7
165	316947	57.897805471018	7
165	317504	57.997803907362	7
165	318069	58.097802343578	7
165	318626	58.197800779613	7
165	319183	58.297799215408	7
165	319740	58.397810650896	7
165	320297	58.497809086003	7
165	320854	58.597807520657	7
165	321411	58.697805954781	7
165	321968	58.797804388292	7
165	322525	58.89780282111	7
165	323082	58.997801253149	7
165	323647	59.097799684322	7
165	324204	59.197811114544	7
165	324761	59.297809543728	7
165	325318	59.397807971784	7
165	325875	59.497806398623	7
165	326432	59.59780482416	7
165	326989	59.697803248318	7
165	327546	59.797801671032	7
165	328103	59.897800092246	7
165	328660	59.997811511929	7
164	5175	2	0
164	10743	3	0
164	16311	4	0
164	21880	5	0
164	27457	6	0
164	33035	7	0
164	38613	8	0
164	44191	9	0
164	49769	10	0
164	55347	11	0
164	60925	12	0
164	66503	13	0
164	72081	14	0
164	77659	15	0
164	83237	16	0
164	88815	17	0
164	94393	18	0
164	99971	19	0
164	105549	20	0
164	111127	21	0
164	116705	22	0
164	122283	23	0
164	127861	24	0
164	133439	25	0
164	139017	26	0
164	144595	27	0
164	150173	28	0
164	155751	29	0
164	161329	30	0
164	166907	31	0
164	172485	32	0
164	178063	33	0
164	183641	34	0
164	189219	35	0
164	194797	36	0
164	200375	37	0
164	205953	38	0
164	211531	39	0
164	217109	40	0
164	222687	41	0
164	228265	42	0
164	233843	43	0
164	239421	44	0
164	244999	45	0
164	250577	46	0
164	256155	47	0
164	261733	48	0
164	267311	49	0
164	272889	50	0
164	278467	51	0
164	284045	52	0
164	289623	53	0
164	295201	54	0
164	300779	55	0
164	306357	56	0
164	311935	57	0
164	317513	58	0
164	323091	59	0
164	328669	60	0
163	5175	2	0.023297
163	10743	3	0.02625
163	16311	4	0.02625
163	21880	5	0.02625
163	27457	6	0.02625
163	33035	7	0.02625
163	38613	8	0.02625
163	44191	9	0.02625
163	49769	10	0.02625
163	55347	11	0.02625
163	60925	12	0.02625
163	66503	13	0.02625
163	72081	14	0.02625
163	77659	15	0.02625
163	83237	16	0.02625
163	88815	17	0.02625
163	94393	18	0.02625
163	99971	19	0.02625
163	105549	20	0.02625
163	111127	21	0.02625
163	116705	22	0.02625
163	122283	23	0.02625
163	127861	24	0.02625
163	133439	25	0.02625
163	139017	26	0.02625
163	144595	27	0.02625
163	150173	28	0.02625
163	155751	29	0.02625
163	161329	30	0.02625
163	166907	31	0.02625
163	172485	32	0.02625
163	178063	33	0.02625
163	183641	34	0.02625
163	189219	35	0.02625
163	194797	36	0.02625
163	200375	37	0.02625
163	205953	38	0.02625
163	211531	39	0.02625
163	217109	40	0.02625
163	222687	41	0.02625
163	228265	42	0.02625
163	233843	43	0.02625
163	239421	44	0.02625
163	244999	45	0.02625
163	250577	46	0.02625
163	256155	47	0.02625
163	261733	48	0.02625
163	267311	49	0.02625
163	272889	50	0.02625
163	278467	51	0.02625
163	284045	52	0.02625
163	289623	53	0.02625
163	295201	54	0.02625
163	300779	55	0.02625
163	306357	56	0.02625
163	311935	57	0.02625
163	317513	58	0.02625
163	323091	59	0.02625
163	328669	60	0.02625
162	5175	2	7
162	10743	3	7
162	16311	4	7
162	21880	5	7
162	27457	6	7
162	33035	7	7
162	38613	8	7
162	44191	9	7
162	49769	10	7
162	55347	11	7
162	60925	12	7
162	66503	13	7
162	72081	14	7
162	77659	15	7
162	83237	16	7
162	88815	17	7
162	94393	18	7
162	99971	19	7
162	105549	20	7
162	111127	21	7
162	116705	22	7
162	122283	23	7
162	127861	24	7
162	133439	25	7
162	139017	26	7
162	144595	27	7
162	150173	28	7
162	155751	29	7
162	161329	30	7
162	166907	31	7
162	172485	32	7
162	178063	33	7
162	183641	34	7
162	189219	35	7
162	194797	36	7
162	200375	37	7
162	205953	38	7
162	211531	39	7
162	217109	40	7
162	222687	41	7
162	228265	42	7
162	233843	43	7
162	239421	44	7
162	244999	45	7
162	250577	46	7
162	256155	47	7
162	261733	48	7
162	267311	49	7
162	272889	50	7
162	278467	51	7
162	284045	52	7
162	289623	53	7
162	295201	54	7
162	300779	55	7
162	306357	56	7
162	311935	57	7
162	317513	58	7
162	323091	59	7
162	328669	60	7
