file 1029417 1501604307                                         
version 2
run SinusoidalJammingDetail-592-20170801-18:18:06-60086
attr CACCSpacing 13
attr attackAcc -30
attr attackPos 7
attr attackSpeed 150
attr attackStart 32
attr attacker 1
attr beaconInterval 0.1
attr configname SinusoidalJammingDetail
attr controller 1
attr datetime 20170801-18:18:06
attr experiment SinusoidalJammingDetail
attr fakeAcc "(1 == 4)"
attr fakePos "(1 == 2)"
attr fakeSpeed "(1 == 3)"
attr inifile omnetpp_592.ini
attr iterationvars "$leaderSpeed=120, $controller=1, $CACCSpacing=13, $sController=\"CACC\", $attacker=1, $attackStart=32, $attackSpeed=150, $attackPos=7, $attackAcc=-30, $0=13, $1=0, $nCars=8, $platoonSize=8, $nLanes=1, $beaconInterval=0.1, $priority=2, $packetSize=200, $ploegH=0.5, $leaderHeadway=1.2, $fakeSpeed=(1 == 3), $fakeAcc=(1 == 4), $fakePos=(1 == 2)"
attr iterationvarsf leaderSpeed=120,controller=1,CACCSpacing=13,sController=CACC,attacker=1,attackStart=32,attackSpeed=150,attackPos=7,attackAcc=-30,13,0,nCars=8,platoonSize=8,nLanes=1,beaconInterval=0.1,priority=2,packetSize=200,ploegH=0.5,leaderHeadway=1.2,fakeSpeed=(1_==_3),fakeAcc=(1_==_4),fakePos=(1_==_2)-
attr leaderHeadway 1.2
attr leaderSpeed 120
attr measurement "$leaderSpeed=120, $controller=1, $CACCSpacing=13, $sController=\"CACC\", $attacker=1, $attackStart=32, $attackSpeed=150, $attackPos=7, $attackAcc=-30, $0=13, $1=0, $nCars=8, $platoonSize=8, $nLanes=1, $beaconInterval=0.1, $priority=2, $packetSize=200, $ploegH=0.5, $leaderHeadway=1.2, $fakeSpeed=(1 == 3), $fakeAcc=(1 == 4), $fakePos=(1 == 2)"
attr nCars 8
attr nLanes 1
attr network scenario
attr packetSize 200
attr platoonSize 8
attr ploegH 0.5
attr priority 2
attr processid 60086
attr repetition 2
attr replication #2
attr resultdir results
attr runnumber 592
attr sController "\"CACC\""
attr seedset 2
param **.coreDebug false
param **.debug false
param **.headway 0.1s
param **.numberOfCars 8
param **.numberOfCarsPerPlatoon 8
param **.numberOfLanes 1
param **.numericController 1
param **.traffic.nCars 8
param **.traffic.nLanes 1
param **.traffic.platoonInsertDistance 13m
param **.traffic.platoonInsertHeadway 0s
param **.traffic.platoonInsertSpeed 120kmph
param **.traffic.platoonInsertTime "1 s"
param **.traffic.platoonLeaderHeadway 1.2s
param **.traffic.platoonSize 8
param **.traffic.platooningVType "\"vtypeauto\""
param **.traffic_type "\"PlatoonsTrafficManager\""
param *.**.nic.mac1609_4.bitrate 6Mbps
param *.**.nic.mac1609_4.txPower 100mW
param *.**.nic.mac1609_4.useServiceChannel false
param *.**.nic.phy80211p.analogueModels "xmldoc(\"config.xml\")"
param *.**.nic.phy80211p.decider "xmldoc(\"config.xml\")"
param *.**.nic.phy80211p.maxTXPower 100mW
param *.**.nic.phy80211p.sensitivity -94dBm
param *.**.nic.phy80211p.thermalNoise -95dBm
param *.**.nic.phy80211p.usePropagationDelay true
param *.**.nic.phy80211p.useThermalNoise true
param *.annotations.draw false
param *.connectionManager.alpha 2.0
param *.connectionManager.carrierFrequency "5.890e9 Hz"
param *.connectionManager.pMax 100mW
param *.connectionManager.sat -94dBm
param *.connectionManager.sendDirect true
param *.manager.autoShutdown true
param *.manager.commandLine "\"sumo --remote-port $port --seed $seed --configuration-file $configFile\""
param *.manager.configFile "\"./sumocfg/freeway.sumo.cfg\""
param *.manager.host "\"localhost\""
param *.manager.margin 25
param *.manager.moduleDisplayString "\"\""
param *.manager.moduleName "\"node\""
param *.manager.moduleType "\"Car\""
param *.manager.updateInterval 0.01s
param *.node[*].appl.attackStart 32s
param *.node[*].appl.attackerType 1
param *.node[*].appl.simulationDuration "60 s"
param *.node[*].appl_type "\"SimplePlatooningApp\""
param *.node[*].helper.nCars 8
param *.node[*].helper.nLanes 1
param *.node[*].helper.platoonSize 8
param *.node[*].helper_type "\"PositionHelper\""
param *.node[*].mobility.x 0
param *.node[*].mobility.y 0
param *.node[*].mobility.z 1.895
param *.node[*].prot.attackStart 32s
param *.node[*].prot.attackerType 1
param *.node[*].prot.attackingNode 3
param *.node[*].prot.beaconingInterval 0.1s
param *.node[*].prot.fakeAcc "(1 == 4)"
param *.node[*].prot.fakePos "(1 == 2)"
param *.node[*].prot.fakeSpeed "(1 == 3)"
param *.node[*].prot.maliciousAcc "-30 mpss"
param *.node[*].prot.maliciousSpeed 150kmph
param *.node[*].prot.packetSize 200
param *.node[*].prot.priority 2
param *.node[*].prot.shiftX "7 m"
param *.node[*].prot.useControllerAcceleration true
param *.node[*].protocol_type "\"SimplePlatooningBeaconing\""
param *.node[*].scenario.accHeadway 0.1s
param *.node[*].scenario.caccC1 0.5
param *.node[*].scenario.caccOmegaN "0.2 Hz"
param *.node[*].scenario.caccSpacing 13m
param *.node[*].scenario.caccXi 1
param *.node[*].scenario.controller "\"CACC\""
param *.node[*].scenario.engineTau "0.5 s"
param *.node[*].scenario.leaderHeadway 1.2s
param *.node[*].scenario.leaderOscillationFrequency "0.2 Hz"
param *.node[*].scenario.leaderSpeed 120kmph
param *.node[*].scenario.oscillationAmplitude "10 kmph"
param *.node[*].scenario.ploegH 0.5s
param *.node[*].scenario.ploegKd 0.7
param *.node[*].scenario.ploegKp 0.2
param *.node[*].scenario.startOscillating "5 s"
param *.node[*].scenario.useRealisticEngine false
param *.node[*].scenario_type "\"SinusoidalScenario\""
param *.node[*].unicast.packetLossRate 0
param *.obstacles.debug false
param *.playgroundSizeX 65000m
param *.playgroundSizeY 25000m
param *.playgroundSizeZ 50m
param *.world.use2D false
param *.world.useTorus false

vector 0  scenario.node[0].appl  distance  ETV
vector 1  scenario.node[0].appl  relativeSpeed  ETV
vector 2  scenario.node[0].appl  nodeId  ETV
vector 6  scenario.node[0].appl  acceleration  ETV
vector 7  scenario.node[0].appl  controllerAcceleration  ETV
vector 3  scenario.node[0].appl  speed  ETV
vector 4  scenario.node[0].appl  posx  ETV
vector 5  scenario.node[0].appl  posy  ETV
vector 22  scenario.node[1].appl  distance  ETV
vector 23  scenario.node[1].appl  relativeSpeed  ETV
vector 24  scenario.node[1].appl  nodeId  ETV
vector 28  scenario.node[1].appl  acceleration  ETV
vector 29  scenario.node[1].appl  controllerAcceleration  ETV
vector 25  scenario.node[1].appl  speed  ETV
vector 26  scenario.node[1].appl  posx  ETV
vector 27  scenario.node[1].appl  posy  ETV
vector 44  scenario.node[2].appl  distance  ETV
vector 45  scenario.node[2].appl  relativeSpeed  ETV
vector 46  scenario.node[2].appl  nodeId  ETV
vector 50  scenario.node[2].appl  acceleration  ETV
vector 51  scenario.node[2].appl  controllerAcceleration  ETV
vector 47  scenario.node[2].appl  speed  ETV
vector 48  scenario.node[2].appl  posx  ETV
vector 49  scenario.node[2].appl  posy  ETV
vector 66  scenario.node[3].appl  distance  ETV
vector 67  scenario.node[3].appl  relativeSpeed  ETV
vector 68  scenario.node[3].appl  nodeId  ETV
vector 72  scenario.node[3].appl  acceleration  ETV
vector 73  scenario.node[3].appl  controllerAcceleration  ETV
vector 69  scenario.node[3].appl  speed  ETV
vector 70  scenario.node[3].appl  posx  ETV
vector 71  scenario.node[3].appl  posy  ETV
vector 88  scenario.node[4].appl  distance  ETV
vector 89  scenario.node[4].appl  relativeSpeed  ETV
vector 90  scenario.node[4].appl  nodeId  ETV
vector 94  scenario.node[4].appl  acceleration  ETV
vector 95  scenario.node[4].appl  controllerAcceleration  ETV
vector 91  scenario.node[4].appl  speed  ETV
vector 92  scenario.node[4].appl  posx  ETV
vector 93  scenario.node[4].appl  posy  ETV
vector 110  scenario.node[5].appl  distance  ETV
vector 111  scenario.node[5].appl  relativeSpeed  ETV
vector 112  scenario.node[5].appl  nodeId  ETV
vector 116  scenario.node[5].appl  acceleration  ETV
vector 117  scenario.node[5].appl  controllerAcceleration  ETV
vector 113  scenario.node[5].appl  speed  ETV
vector 114  scenario.node[5].appl  posx  ETV
vector 115  scenario.node[5].appl  posy  ETV
vector 132  scenario.node[6].appl  distance  ETV
vector 133  scenario.node[6].appl  relativeSpeed  ETV
vector 134  scenario.node[6].appl  nodeId  ETV
vector 138  scenario.node[6].appl  acceleration  ETV
vector 139  scenario.node[6].appl  controllerAcceleration  ETV
vector 135  scenario.node[6].appl  speed  ETV
vector 136  scenario.node[6].appl  posx  ETV
vector 137  scenario.node[6].appl  posy  ETV
vector 154  scenario.node[7].appl  distance  ETV
vector 155  scenario.node[7].appl  relativeSpeed  ETV
vector 156  scenario.node[7].appl  nodeId  ETV
vector 160  scenario.node[7].appl  acceleration  ETV
vector 161  scenario.node[7].appl  controllerAcceleration  ETV
vector 157  scenario.node[7].appl  speed  ETV
vector 158  scenario.node[7].appl  posx  ETV
vector 159  scenario.node[7].appl  posy  ETV
vector 168  scenario.node[7].prot  frontDelay  ETV
vector 166  scenario.node[7].prot  frontDelayId  ETV
vector 146  scenario.node[6].prot  frontDelay  ETV
vector 144  scenario.node[6].prot  frontDelayId  ETV
vector 35  scenario.node[1].prot  leaderDelay  ETV
vector 33  scenario.node[1].prot  leaderDelayId  ETV
vector 36  scenario.node[1].prot  frontDelay  ETV
vector 34  scenario.node[1].prot  frontDelayId  ETV
vector 57  scenario.node[2].prot  leaderDelay  ETV
vector 55  scenario.node[2].prot  leaderDelayId  ETV
vector 79  scenario.node[3].prot  leaderDelay  ETV
vector 77  scenario.node[3].prot  leaderDelayId  ETV
vector 101  scenario.node[4].prot  leaderDelay  ETV
vector 99  scenario.node[4].prot  leaderDelayId  ETV
vector 123  scenario.node[5].prot  leaderDelay  ETV
vector 121  scenario.node[5].prot  leaderDelayId  ETV
vector 145  scenario.node[6].prot  leaderDelay  ETV
vector 143  scenario.node[6].prot  leaderDelayId  ETV
vector 167  scenario.node[7].prot  leaderDelay  ETV
vector 165  scenario.node[7].prot  leaderDelayId  ETV
vector 102  scenario.node[4].prot  frontDelay  ETV
vector 100  scenario.node[4].prot  frontDelayId  ETV
vector 80  scenario.node[3].prot  frontDelay  ETV
vector 78  scenario.node[3].prot  frontDelayId  ETV
vector 124  scenario.node[5].prot  frontDelay  ETV
vector 122  scenario.node[5].prot  frontDelayId  ETV
vector 58  scenario.node[2].prot  frontDelay  ETV
vector 56  scenario.node[2].prot  frontDelayId  ETV
vector 8  scenario.node[0].prot  nodeId  ETV
vector 9  scenario.node[0].prot  busyTime  ETV
vector 10  scenario.node[0].prot  collisions  ETV
vector 30  scenario.node[1].prot  nodeId  ETV
vector 31  scenario.node[1].prot  busyTime  ETV
vector 32  scenario.node[1].prot  collisions  ETV
vector 52  scenario.node[2].prot  nodeId  ETV
vector 53  scenario.node[2].prot  busyTime  ETV
vector 54  scenario.node[2].prot  collisions  ETV
vector 74  scenario.node[3].prot  nodeId  ETV
vector 75  scenario.node[3].prot  busyTime  ETV
vector 76  scenario.node[3].prot  collisions  ETV
vector 96  scenario.node[4].prot  nodeId  ETV
vector 97  scenario.node[4].prot  busyTime  ETV
vector 98  scenario.node[4].prot  collisions  ETV
vector 118  scenario.node[5].prot  nodeId  ETV
vector 119  scenario.node[5].prot  busyTime  ETV
vector 120  scenario.node[5].prot  collisions  ETV
vector 140  scenario.node[6].prot  nodeId  ETV
vector 141  scenario.node[6].prot  busyTime  ETV
vector 142  scenario.node[6].prot  collisions  ETV
vector 162  scenario.node[7].prot  nodeId  ETV
vector 163  scenario.node[7].prot  busyTime  ETV
vector 164  scenario.node[7].prot  collisions  ETV
7	11241 8593 232 201559 1.11 37.21 362 -1.5 1.5 16.332687283983 582.34230479258
6	19834 11357 232 201559 1.11 37.21 362 -1.4722746795918 1.4513430531451 10.978992265674 396.02974049463
5	31191 7314 232 201559 1.11 37.21 362 36.55 36.55 13231.1 483596.705
4	38505 10887 232 201559 1.11 37.21 362 157.22662849466 1364.0075378383 275888.27491819 254436347.07628
3	49392 10897 232 201559 1.11 37.21 362 32.043531245463 35.298048086563 12101.51900876 404815.97090812
1	60289 5866 232 201559 1.11 37.21 362 0 0 0 0
0	66155 6228 232 201559 1.11 37.21 362 -1 -1 -362 362
2	72383 5866 232 201559 1.11 37.21 362 0 0 0 0
10	78249 513 5168 200368 2 37 36 0 0 0 0
9	78762 694 5168 200368 2 37 36 0.023297 0.02625 0.942047 0.024659937709
8	79456 477 5168 200368 2 37 36 0 0 0 0
51	79933 11649 234 201561 1.11 37.21 362 -1.496300694692 1.4967154949224 35.979278907802 494.04494739998
50	91582 11688 234 201561 1.11 37.21 362 -1.4778825233201 1.4526090870127 36.332273999077 355.36347739573
49	103270 7676 234 201561 1.11 37.21 362 36.55 36.55 13231.1 483596.705
48	110946 11262 234 201561 1.11 37.21 362 123.22663612366 1344.251085301 263857.34429106 236818694.90483
47	122208 11262 234 201561 1.11 37.21 362 32.042284476117 36.969460024762 12244.84978647 414777.92404107
45	133470 12380 234 201561 1.11 37.21 362 -0.72398540662454 0.017598292085061 -14.108176509837 6.9174302169299
44	145850 11239 234 201561 1.11 37.21 362 11.658252492962 13.045888070148 4690.4922339448 60789.001332728
46	157089 6228 234 201561 1.11 37.21 362 2 2 724 1448
58	163317 14376 1312 201527 1.302597268237 37.202598073244 360 0.09999912246 0.100012249721 36.000000052537 3.6000000138504
57	177693 14395 1040 201811 1.262217814589 37.262217760962 361 0.099999120051 0.1000122502 36.099999193903 3.6099998421226
56	192088 9763 1312 201527 1.302597268237 37.202598073244 360 2 2 720 1440
55	201851 9787 1040 201811 1.262217814589 37.262217760962 361 2 2 722 1444
54	211638 513 5170 200370 2 37 36 0 0 0 0
53	212151 730 5170 200370 2 37 36 0.023297 0.02625 0.942047 0.024659937709
52	212881 513 5170 200370 2 37 36 2 2 72 144
73	213394 11661 235 201562 1.11 37.21 362 -1.5144504174806 1.5154441357716 41.98662586063 508.60294860006
72	225055 11694 235 201562 1.11 37.21 362 -1.4663369080679 1.4406243250363 40.952495068785 353.1915704331
71	236749 7676 235 201562 1.11 37.21 362 36.55 36.55 13231.1 483596.705
70	244425 11261 235 201562 1.11 37.21 362 106.22663612366 1327.9950715051 257710.32344899 227972815.877
69	255686 11252 235 201562 1.11 37.21 362 32.053895670137 37.422803367567 12252.449792799 415337.40318052
67	266938 12449 235 201562 1.11 37.21 362 -0.45442940622245 0.014948583976434 -7.9633290687322 2.3817885992336
66	279387 11233 235 201562 1.11 37.21 362 12.265105879441 13.040651905317 4699.1728421972 61004.363564618
68	290620 6228 235 201562 1.11 37.21 362 3 3 1086 3258
80	296848 14363 1176 201390 1.287873984707 37.187874803766 360 0.099999123268 0.100012249619 36.000000066589 3.6000000166606
79	311211 14411 1046 201817 1.262217871295 37.262217815109 361 0.099999119898 0.100012250204 36.099999191344 3.6099998416108
78	325622 9758 1176 201390 1.287873984707 37.187874803766 360 3 3 1080 3240
77	335380 9795 1046 201817 1.262217871295 37.262217815109 361 3 3 1083 3249
76	345175 513 5171 200371 2 37 36 0 0 0 0
75	345688 730 5171 200371 2 37 36 0.023297 0.02625 0.942047 0.024659937709
74	346418 513 5171 200371 2 37 36 3 3 108 324
95	346931 11650 236 201563 1.11 37.21 362 -1.5000260533859 1.5032356653189 45.228052704741 501.10115865846
94	358581 11688 236 201563 1.11 37.21 362 -1.4562064713658 1.4309924845058 43.737534785877 350.82004721361
93	370269 7676 236 201563 1.11 37.21 362 36.55 36.55 13231.1 483596.705
92	377945 11261 236 201563 1.11 37.21 362 89.22663230896 1311.3952557796 251559.11893394 219324820.53
91	389206 11253 236 201563 1.11 37.21 362 32.064224108648 37.696033322705 12256.548186042 415640.08403556
89	400459 12452 236 201563 1.11 37.21 362 -0.2744321348733 0.014321935116513 -4.5079181937805 0.78515125240309
88	412911 11264 236 201563 1.11 37.21 362 12.60528032455 13.026847576536 4703.286482913 61108.483685643
90	424175 6228 236 201563 1.11 37.21 362 4 4 1448 5792
102	430403 14764 1108 201879 1.276579928001 37.276579870424 361 0.099999119806 0.100012249626 36.099999189953 3.6099998413342
101	445167 14778 1052 201823 1.262217928001 37.262217870434 361 0.099999119807 0.100012250208 36.099999189963 3.6099998413346
100	459945 10146 1108 201879 1.276579928001 37.276579870424 361 4 4 1444 5776
99	470091 9789 1052 201823 1.262217928001 37.262217870434 361 4 4 1444 5776
98	479880 513 5172 200372 2 37 36 0 0 0 0
97	480393 730 5172 200372 2 37 36 0.023297 0.02625 0.942047 0.024659937709
96	481123 513 5172 200372 2 37 36 4 4 144 576
117	481636 12027 237 201564 1.11 37.21 362 -1.5085423810068 1.5107018919632 47.516802722926 510.88589896199
116	493663 12060 237 201564 1.11 37.21 362 -1.4566507185123 1.4331525333816 45.362964440058 354.45827332189
115	505723 8038 237 201564 1.11 37.21 362 36.55 36.55 13231.1 483596.705
114	513761 11599 237 201564 1.11 37.21 362 72.22663230896 1294.6795402908 245408.16193381 210885492.98228
113	525360 11617 237 201564 1.11 37.21 362 32.059271866391 37.857141187767 12259.447894329 415856.29248762
111	536977 12650 237 201564 1.11 37.21 362 -0.16334576210061 0.032962613726163 -3.3370836345526 0.42113223515628
110	549627 11601 237 201564 1.11 37.21 362 12.718937646123 13.024531774511 4703.0149943001 61101.095421454
112	561228 6590 237 201564 1.11 37.21 362 5 5 1810 9050
124	567818 14729 1244 201458 1.297504098119 37.197504914932 360 0.099999123125 0.100012249495 36.000000064343 3.6000000162113
123	582547 14775 1058 201829 1.262217984706 37.262217926164 361 0.099999119753 0.100012250208 36.099999188988 3.6099998411396
122	597322 10122 1244 201458 1.297504098119 37.197504914932 360 5 5 1800 9000
121	607444 10147 1058 201829 1.262217984706 37.262217926164 361 5 5 1805 9025
120	617591 549 5173 200373 2 37 36 0 0 0 0
119	618140 766 5173 200373 2 37 36 0.023297 0.02625 0.942047 0.024659937709
118	618906 549 5173 200373 2 37 36 5 5 180 900
139	619455 12004 238 201565 1.11 37.21 362 -1.4954220961971 1.4958357868666 48.068524611705 501.37954622612
138	631459 12063 238 201565 1.11 37.21 362 -1.4604221181116 1.4357848832269 46.396083906284 356.86706013649
137	643522 8038 238 201565 1.11 37.21 362 36.55 36.55 13231.1 483596.705
136	651560 11614 238 201565 1.11 37.21 362 55.226634216309 1277.7755511724 239252.64354781 202644359.53806
135	663174 11618 238 201565 1.11 37.21 362 32.058008411517 37.956267254802 12260.443461895 415934.18145505
133	674792 12883 238 201565 1.11 37.21 362 -0.10203414389743 0.011156270803134 -1.4491972104952 0.11229559121762
132	687675 11624 238 201565 1.11 37.21 362 12.905971639762 13.036606088463 4707.5382973525 61218.125076325
134	699299 6590 238 201565 1.11 37.21 362 6 6 2172 13032
146	705889 14764 970 201741 1.247595474354 37.247595520953 361 0.099999122036 0.100012249664 36.099999294129 3.6099998621687
145	720653 14769 1064 201835 1.262218041412 37.262217982533 361 0.09999911972 0.100012250206 36.099999188651 3.6099998410722
144	735422 10142 970 201741 1.247595474354 37.247595520953 361 6 6 2166 12996
143	745564 10157 1064 201835 1.262218041412 37.262217982533 361 6 6 2166 12996
142	755721 549 5174 200374 2 37 36 0 0 0 0
141	756270 766 5174 200374 2 37 36 0.023297 0.02625 0.942047 0.024659937709
140	757036 549 5174 200374 2 37 36 6 6 216 1296
161	757585 12018 239 201566 1.11 37.21 362 -1.4854568446023 1.4867112247907 48.312642060087 489.3078766512
160	769603 12052 239 201566 1.11 37.21 362 -1.4553422010458 1.4301914093885 46.91833927997 354.90033262933
159	781655 8038 239 201566 1.11 37.21 362 36.55 36.55 13231.1 483596.705
158	789693 11614 239 201566 1.11 37.21 362 38.226633262634 1260.8101857287 233097.07857179 194612252.99846
157	801307 11611 239 201566 1.11 37.21 362 32.064173590627 38.009300546029 12260.808580374 415961.09848635
155	812918 12965 239 201566 1.11 37.21 362 -0.056411804407681 0.0095544557876153 -0.82907931793827 0.038456610233883
154	825883 11620 239 201566 1.11 37.21 362 12.966426109462 13.021177203968 4707.5722783823 61218.904354634
156	837503 6590 239 201566 1.11 37.21 362 7 7 2534 17738
168	844093 14764 832 201603 1.212137304236 37.212137351606 361 0.099999122119 0.100012250099 36.0999992949 3.6099998623209
167	858857 14773 1070 201841 1.262218098118 37.262218039114 361 0.099999119702 0.100012250209 36.099999188526 3.6099998410472
166	873630 10151 832 201603 1.212137304236 37.212137351606 361 7 7 2527 17689
165	883781 10150 1070 201841 1.262218098118 37.262218039114 361 7 7 2527 17689
164	893931 549 5175 200375 2 37 36 0 0 0 0
163	894480 766 5175 200375 2 37 36 0.023297 0.02625 0.942047 0.024659937709
162	895246 549 5175 200375 2 37 36 7 7 252 1764
22	895795 11279 233 201911 1.11 37.28 363 0 13.129149936589 4447.3050087408 56820.59831129
23	907074 12192 233 201911 1.11 37.28 363 -4.3007391301463 0.085493285951266 -131.39516179665 434.77521231722
24	919266 6246 233 201911 1.11 37.28 363 1 1 363 363
25	925512 11291 233 201911 1.11 37.28 363 32.036050968623 36.395610294894 12267.261358131 415081.45071354
26	936803 11286 233 201911 1.11 37.28 363 140.22663612366 1362.4311486611 271357.99131407 247706343.38409
27	948089 7698 233 201911 1.11 37.28 363 36.55 36.55 13267.65 484932.6075
28	955787 11751 233 201911 1.11 37.28 363 -1.4872876614284 1.4632119925373 28.834283523747 354.43612412238
29	967538 11729 233 201911 1.11 37.28 363 -1.52339341847 1.5241492512274 28.102257535179 510.33756800863
30	979267 513 5169 200369 2 37 36 1 1 36 36
31	979780 730 5169 200369 2 37 36 0.023296 0.02625 0.942046 0.024659891116
32	980510 513 5169 200369 2 37 36 0 0 0 0
33	981023 9787 1034 201805 1.262217757883 37.262217708902 361 1 1 361 361
34	990810 9787 1034 201805 1.262217757883 37.262217708902 361 1 1 361 361
35	1000597 14410 1034 201805 1.262217757883 37.262217708902 361 0.099999120294 0.100012250198 36.099999198549 3.6099998430518
36	1015007 14410 1034 201805 1.262217757883 37.262217708902 361 0.099999120294 0.100012250198 36.099999198549 3.6099998430518
