version 2
run SinusoidalJammingDetail-475-20170803-16:58:32-75361
attr CACCSpacing 5
attr attackAcc -30
attr attackPos 7
attr attackSpeed 150
attr attackStart 32.5
attr attacker 1
attr beaconInterval 0.1
attr configname SinusoidalJammingDetail
attr controller 3
attr datetime 20170803-16:58:32
attr experiment SinusoidalJammingDetail
attr fakeAcc "(1 == 4)"
attr fakePos "(1 == 2)"
attr fakeSpeed "(1 == 3)"
attr inifile omnetpp_475.ini
attr iterationvars "$leaderSpeed=80, $controller=3, $CACCSpacing=5, $sController=\"CONSENSUS\", $attacker=1, $attackStart=32.5, $attackSpeed=150, $attackPos=7, $attackAcc=-30, $0=5, $1=0.8, $nCars=8, $platoonSize=8, $nLanes=1, $beaconInterval=0.1, $priority=2, $packetSize=200, $ploegH=0.5, $leaderHeadway=1.2, $fakeSpeed=(1 == 3), $fakeAcc=(1 == 4), $fakePos=(1 == 2)"
attr iterationvarsf leaderSpeed=80,controller=3,CACCSpacing=5,sController=CONSENSUS,attacker=1,attackStart=32.5,attackSpeed=150,attackPos=7,attackAcc=-30,5,0.8,nCars=8,platoonSize=8,nLanes=1,beaconInterval=0.1,priority=2,packetSize=200,ploegH=0.5,leaderHeadway=1.2,fakeSpeed=(1_==_3),fakeAcc=(1_==_4),fakePos=(1_==_2)-
attr leaderHeadway 1.2
attr leaderSpeed 80
attr measurement "$leaderSpeed=80, $controller=3, $CACCSpacing=5, $sController=\"CONSENSUS\", $attacker=1, $attackStart=32.5, $attackSpeed=150, $attackPos=7, $attackAcc=-30, $0=5, $1=0.8, $nCars=8, $platoonSize=8, $nLanes=1, $beaconInterval=0.1, $priority=2, $packetSize=200, $ploegH=0.5, $leaderHeadway=1.2, $fakeSpeed=(1 == 3), $fakeAcc=(1 == 4), $fakePos=(1 == 2)"
attr nCars 8
attr nLanes 1
attr network scenario
attr packetSize 200
attr platoonSize 8
attr ploegH 0.5
attr priority 2
attr processid 75361
attr repetition 0
attr replication #0
attr resultdir results
attr runnumber 475
attr sController "\"CONSENSUS\""
attr seedset 0
param **.coreDebug false
param **.debug false
param **.headway 0.1s
param **.numberOfCars 8
param **.numberOfCarsPerPlatoon 8
param **.numberOfLanes 1
param **.numericController 3
param **.traffic.nCars 8
param **.traffic.nLanes 1
param **.traffic.platoonInsertDistance 5m
param **.traffic.platoonInsertHeadway 0.8s
param **.traffic.platoonInsertSpeed 80kmph
param **.traffic.platoonInsertTime "1 s"
param **.traffic.platoonLeaderHeadway 1.2s
param **.traffic.platoonSize 8
param **.traffic.platooningVType "\"vtypeauto\""
param **.traffic_type "\"PlatoonsTrafficManager\""
param *.**.nic.mac1609_4.bitrate 6Mbps
param *.**.nic.mac1609_4.txPower 100mW
param *.**.nic.mac1609_4.useServiceChannel false
param *.**.nic.phy80211p.analogueModels "xmldoc(\"config.xml\")"
param *.**.nic.phy80211p.decider "xmldoc(\"config.xml\")"
param *.**.nic.phy80211p.maxTXPower 100mW
param *.**.nic.phy80211p.sensitivity -94dBm
param *.**.nic.phy80211p.thermalNoise -95dBm
param *.**.nic.phy80211p.usePropagationDelay true
param *.**.nic.phy80211p.useThermalNoise true
param *.annotations.draw false
param *.connectionManager.alpha 2.0
param *.connectionManager.carrierFrequency "5.890e9 Hz"
param *.connectionManager.pMax 100mW
param *.connectionManager.sat -94dBm
param *.connectionManager.sendDirect true
param *.manager.autoShutdown true
param *.manager.commandLine "\"sumo --remote-port $port --seed $seed --configuration-file $configFile\""
param *.manager.configFile "\"./sumocfg/freeway.sumo.cfg\""
param *.manager.host "\"localhost\""
param *.manager.margin 25
param *.manager.moduleDisplayString "\"\""
param *.manager.moduleName "\"node\""
param *.manager.moduleType "\"Car\""
param *.manager.updateInterval 0.01s
param *.node[*].appl.attackStart 32.5s
param *.node[*].appl.attackerType 1
param *.node[*].appl.simulationDuration "60 s"
param *.node[*].appl_type "\"SimplePlatooningApp\""
param *.node[*].helper.nCars 8
param *.node[*].helper.nLanes 1
param *.node[*].helper.platoonSize 8
param *.node[*].helper_type "\"PositionHelper\""
param *.node[*].mobility.x 0
param *.node[*].mobility.y 0
param *.node[*].mobility.z 1.895
param *.node[*].prot.attackStart 32.5s
param *.node[*].prot.attackerType 1
param *.node[*].prot.attackingNode 3
param *.node[*].prot.beaconingInterval 0.1s
param *.node[*].prot.fakeAcc "(1 == 4)"
param *.node[*].prot.fakePos "(1 == 2)"
param *.node[*].prot.fakeSpeed "(1 == 3)"
param *.node[*].prot.maliciousAcc "-30 mpss"
param *.node[*].prot.maliciousSpeed 150kmph
param *.node[*].prot.packetSize 200
param *.node[*].prot.priority 2
param *.node[*].prot.shiftX "7 m"
param *.node[*].prot.useControllerAcceleration true
param *.node[*].protocol_type "\"SimplePlatooningBeaconing\""
param *.node[*].scenario.accHeadway 0.1s
param *.node[*].scenario.caccC1 0.5
param *.node[*].scenario.caccOmegaN "0.2 Hz"
param *.node[*].scenario.caccSpacing 5m
param *.node[*].scenario.caccXi 1
param *.node[*].scenario.controller "\"CONSENSUS\""
param *.node[*].scenario.engineTau "0.5 s"
param *.node[*].scenario.leaderHeadway 1.2s
param *.node[*].scenario.leaderOscillationFrequency "0.2 Hz"
param *.node[*].scenario.leaderSpeed 80kmph
param *.node[*].scenario.oscillationAmplitude "10 kmph"
param *.node[*].scenario.ploegH 0.5s
param *.node[*].scenario.ploegKd 0.7
param *.node[*].scenario.ploegKp 0.2
param *.node[*].scenario.startOscillating "5 s"
param *.node[*].scenario.useRealisticEngine false
param *.node[*].scenario_type "\"SinusoidalScenario\""
param *.node[*].unicast.packetLossRate 0
param *.obstacles.debug false
param *.playgroundSizeX 65000m
param *.playgroundSizeY 25000m
param *.playgroundSizeZ 50m
param *.world.use2D false
param *.world.useTorus false

vector 0  scenario.node[0].appl  distance  ETV
vector 1  scenario.node[0].appl  relativeSpeed  ETV
vector 2  scenario.node[0].appl  nodeId  ETV
vector 6  scenario.node[0].appl  acceleration  ETV
vector 7  scenario.node[0].appl  controllerAcceleration  ETV
vector 3  scenario.node[0].appl  speed  ETV
vector 4  scenario.node[0].appl  posx  ETV
vector 5  scenario.node[0].appl  posy  ETV
vector 22  scenario.node[1].appl  distance  ETV
vector 23  scenario.node[1].appl  relativeSpeed  ETV
vector 24  scenario.node[1].appl  nodeId  ETV
vector 28  scenario.node[1].appl  acceleration  ETV
vector 29  scenario.node[1].appl  controllerAcceleration  ETV
vector 25  scenario.node[1].appl  speed  ETV
vector 26  scenario.node[1].appl  posx  ETV
vector 27  scenario.node[1].appl  posy  ETV
vector 44  scenario.node[2].appl  distance  ETV
vector 45  scenario.node[2].appl  relativeSpeed  ETV
vector 46  scenario.node[2].appl  nodeId  ETV
vector 50  scenario.node[2].appl  acceleration  ETV
vector 51  scenario.node[2].appl  controllerAcceleration  ETV
vector 47  scenario.node[2].appl  speed  ETV
vector 48  scenario.node[2].appl  posx  ETV
vector 49  scenario.node[2].appl  posy  ETV
vector 66  scenario.node[3].appl  distance  ETV
vector 67  scenario.node[3].appl  relativeSpeed  ETV
vector 68  scenario.node[3].appl  nodeId  ETV
vector 72  scenario.node[3].appl  acceleration  ETV
vector 73  scenario.node[3].appl  controllerAcceleration  ETV
vector 69  scenario.node[3].appl  speed  ETV
vector 70  scenario.node[3].appl  posx  ETV
vector 71  scenario.node[3].appl  posy  ETV
vector 88  scenario.node[4].appl  distance  ETV
vector 89  scenario.node[4].appl  relativeSpeed  ETV
vector 90  scenario.node[4].appl  nodeId  ETV
vector 94  scenario.node[4].appl  acceleration  ETV
vector 95  scenario.node[4].appl  controllerAcceleration  ETV
vector 91  scenario.node[4].appl  speed  ETV
vector 92  scenario.node[4].appl  posx  ETV
vector 93  scenario.node[4].appl  posy  ETV
vector 110  scenario.node[5].appl  distance  ETV
vector 111  scenario.node[5].appl  relativeSpeed  ETV
vector 112  scenario.node[5].appl  nodeId  ETV
vector 116  scenario.node[5].appl  acceleration  ETV
vector 117  scenario.node[5].appl  controllerAcceleration  ETV
vector 113  scenario.node[5].appl  speed  ETV
vector 114  scenario.node[5].appl  posx  ETV
vector 115  scenario.node[5].appl  posy  ETV
vector 132  scenario.node[6].appl  distance  ETV
vector 133  scenario.node[6].appl  relativeSpeed  ETV
vector 134  scenario.node[6].appl  nodeId  ETV
vector 138  scenario.node[6].appl  acceleration  ETV
vector 139  scenario.node[6].appl  controllerAcceleration  ETV
vector 135  scenario.node[6].appl  speed  ETV
vector 136  scenario.node[6].appl  posx  ETV
vector 137  scenario.node[6].appl  posy  ETV
vector 154  scenario.node[7].appl  distance  ETV
vector 155  scenario.node[7].appl  relativeSpeed  ETV
vector 156  scenario.node[7].appl  nodeId  ETV
vector 160  scenario.node[7].appl  acceleration  ETV
vector 161  scenario.node[7].appl  controllerAcceleration  ETV
vector 157  scenario.node[7].appl  speed  ETV
vector 158  scenario.node[7].appl  posx  ETV
vector 159  scenario.node[7].appl  posy  ETV
vector 80  scenario.node[3].prot  frontDelay  ETV
vector 78  scenario.node[3].prot  frontDelayId  ETV
vector 58  scenario.node[2].prot  frontDelay  ETV
vector 56  scenario.node[2].prot  frontDelayId  ETV
vector 168  scenario.node[7].prot  frontDelay  ETV
vector 166  scenario.node[7].prot  frontDelayId  ETV
vector 35  scenario.node[1].prot  leaderDelay  ETV
vector 33  scenario.node[1].prot  leaderDelayId  ETV
vector 36  scenario.node[1].prot  frontDelay  ETV
vector 34  scenario.node[1].prot  frontDelayId  ETV
vector 57  scenario.node[2].prot  leaderDelay  ETV
vector 55  scenario.node[2].prot  leaderDelayId  ETV
vector 79  scenario.node[3].prot  leaderDelay  ETV
vector 77  scenario.node[3].prot  leaderDelayId  ETV
vector 101  scenario.node[4].prot  leaderDelay  ETV
vector 99  scenario.node[4].prot  leaderDelayId  ETV
vector 123  scenario.node[5].prot  leaderDelay  ETV
vector 121  scenario.node[5].prot  leaderDelayId  ETV
vector 145  scenario.node[6].prot  leaderDelay  ETV
vector 143  scenario.node[6].prot  leaderDelayId  ETV
vector 167  scenario.node[7].prot  leaderDelay  ETV
vector 165  scenario.node[7].prot  leaderDelayId  ETV
vector 124  scenario.node[5].prot  frontDelay  ETV
vector 122  scenario.node[5].prot  frontDelayId  ETV
vector 102  scenario.node[4].prot  frontDelay  ETV
vector 100  scenario.node[4].prot  frontDelayId  ETV
vector 146  scenario.node[6].prot  frontDelay  ETV
vector 144  scenario.node[6].prot  frontDelayId  ETV
vector 8  scenario.node[0].prot  nodeId  ETV
vector 9  scenario.node[0].prot  busyTime  ETV
vector 10  scenario.node[0].prot  collisions  ETV
vector 30  scenario.node[1].prot  nodeId  ETV
vector 31  scenario.node[1].prot  busyTime  ETV
vector 32  scenario.node[1].prot  collisions  ETV
vector 52  scenario.node[2].prot  nodeId  ETV
vector 53  scenario.node[2].prot  busyTime  ETV
vector 54  scenario.node[2].prot  collisions  ETV
vector 74  scenario.node[3].prot  nodeId  ETV
vector 75  scenario.node[3].prot  busyTime  ETV
vector 76  scenario.node[3].prot  collisions  ETV
vector 96  scenario.node[4].prot  nodeId  ETV
vector 97  scenario.node[4].prot  busyTime  ETV
vector 98  scenario.node[4].prot  collisions  ETV
vector 118  scenario.node[5].prot  nodeId  ETV
vector 119  scenario.node[5].prot  busyTime  ETV
vector 120  scenario.node[5].prot  collisions  ETV
vector 140  scenario.node[6].prot  nodeId  ETV
vector 141  scenario.node[6].prot  busyTime  ETV
vector 142  scenario.node[6].prot  collisions  ETV
vector 162  scenario.node[7].prot  nodeId  ETV
vector 163  scenario.node[7].prot  busyTime  ETV
vector 164  scenario.node[7].prot  collisions  ETV
7	232	1.11	8.430731206488e-07
7	788	1.21	8.247038785214e-07
7	1344	1.31	7.948429328053e-07
7	1900	1.41	7.5609037608615e-07
7	2456	1.51	7.1073863239235e-07
7	3012	1.61	6.6078666094427e-07
7	3568	1.71	6.079568990458e-07
7	4124	1.81	5.5371389606762e-07
7	4680	1.91	4.9928438983216e-07
7	5244	2.01	4.4567811841034e-07
7	5800	2.11	3.9370868165634e-07
7	6356	2.21	3.4401411852514e-07
7	6912	2.31	2.9707706872273e-07
7	7468	2.41	2.5324398578164e-07
7	8024	2.51	2.1274344064182e-07
7	8580	2.61	1.7570315336002e-07
7	9136	2.71	1.4216582755466e-07
7	9692	2.81	1.1210364547765e-07
7	10248	2.91	8.5431519636359e-08
7	10812	3.01	6.2018816748832e-08
7	11368	3.11	4.1699859565369e-08
7	11924	3.21	2.4283316690799e-08
7	12480	3.31	9.5601571103998e-09
7	13036	3.41	-2.6894362292751e-09
7	13592	3.51	-1.2690140493987e-08
7	14148	3.61	-2.0666576006079e-08
7	14704	3.71	-2.6839355626862e-08
7	15260	3.81	-3.1421798496467e-08
7	15816	3.91	-3.4617407607129e-08
7	16380	4.01	-3.6617997523081e-08
7	16936	4.11	-3.7602347902066e-08
7	17492	4.21	-3.7735404134764e-08
7	18048	4.31	-3.7167730226884e-08
7	18604	4.41	-3.6035434192172e-08
7	19160	4.51	-3.446024621212e-08
7	19716	4.61	-3.2549973383311e-08
7	20272	4.71	-3.0399071704323e-08
7	20828	4.81	-2.8089345960325e-08
7	21384	4.91	-2.5690727767369e-08
7	21949	5.01	-2.326218861981e-08
7	22506	5.11	0.34814785015927
7	23063	5.21	0.68726933461214
7	23620	5.31	1.0064705986278
7	24177	5.41	1.2963311417008
7	24734	5.51	1.5
7	25291	5.61	1.5
7	25848	5.71	1.5
7	26405	5.81	1.5
7	26962	5.91	1.5
7	27527	6.01	1.5
7	28084	6.11	1.5
7	28641	6.21	1.5
7	29198	6.31	1.5
7	29755	6.41	1.5
7	30312	6.51	1.49192340766
7	30869	6.61	1.22649932262
7	31426	6.71	0.92305383478006
7	31983	6.81	0.58908101519542
7	32540	6.91	0.23235621239028
7	33105	7.01	-0.13919560128961
7	33662	7.11	-0.5176284684353
7	34219	7.21	-0.89509994168449
7	34776	7.31	-1.2639902903501
7	35333	7.41	-1.5
7	35890	7.51	-1.5
7	36447	7.61	-1.5
7	37004	7.71	-1.5
7	37561	7.81	-1.5
7	38118	7.91	-1.5
7	38683	8.01	-1.5
7	39240	8.11	-1.5
7	39797	8.21	-1.5
7	40354	8.31	-1.5
7	40911	8.41	-1.5
7	41468	8.51	-1.5
7	42025	8.61	-1.5
7	42582	8.71	-1.5
7	43139	8.81	-1.5
7	43696	8.91	-1.5
7	44261	9.01	-1.5
7	44818	9.11	-1.5
7	45375	9.21	-1.5
7	45932	9.31	-1.5
7	46489	9.41	-1.5
7	47046	9.51	-1.1784535907027
7	47603	9.61	-0.73985166445766
7	48160	9.71	-0.29046662083969
7	48717	9.81	0.158682056465
7	49274	9.91	0.59737147669388
7	49839	10.01	1.0162504339893
7	50396	10.11	1.4069035497099
7	50953	10.21	1.5
7	51510	10.31	1.5
7	52067	10.41	1.5
7	52624	10.51	1.5
7	53181	10.61	1.5
7	53738	10.71	1.5
7	54295	10.81	1.5
7	54852	10.91	1.5
7	55417	11.01	1.5
7	55974	11.11	1.5
7	56531	11.21	1.5
7	57088	11.31	1.5
7	57645	11.41	1.5
7	58202	11.51	1.5
7	58759	11.61	1.5
7	59316	11.71	1.5
7	59873	11.81	1.5
7	60430	11.91	1.1420569522637
7	60995	12.01	0.73271074167055
7	61552	12.11	0.3076349169641
7	62109	12.21	-0.12290183406852
7	62666	12.31	-0.54917422870931
7	63223	12.41	-0.96209331721755
7	63780	12.51	-1.3532900275778
7	64337	12.61	-1.5
7	64894	12.71	-1.5
7	65451	12.81	-1.5
7	66008	12.91	-1.5
7	66573	13.01	-1.5
7	67130	13.11	-1.5
7	67687	13.21	-1.5
7	68244	13.31	-1.5
7	68801	13.41	-1.5
7	69358	13.51	-1.5
7	69915	13.61	-1.5
7	70472	13.71	-1.5
7	71029	13.81	-1.5
7	71586	13.91	-1.5
7	72151	14.01	-1.5
7	72708	14.11	-1.5
7	73265	14.21	-1.5
7	73822	14.31	-1.5
7	74379	14.41	-1.3008305793368
7	74936	14.51	-0.88835736023102
7	75493	14.61	-0.45792464376746
7	76050	14.71	-0.020297800498863
7	76607	14.81	0.41435934755698
7	77164	14.91	0.83657487483132
7	77729	15.01	1.2376491838803
7	78286	15.11	1.5
7	78843	15.21	1.5
7	79400	15.31	1.5
7	79957	15.41	1.5
7	80514	15.51	1.5
7	81071	15.61	1.5
7	81628	15.71	1.5
7	82185	15.81	1.5
7	82742	15.91	1.5
7	83307	16.01	1.5
7	83864	16.11	1.5
7	84421	16.21	1.5
7	84978	16.31	1.5
7	85535	16.41	1.5
7	86092	16.51	1.5
7	86649	16.61	1.5
7	87206	16.71	1.5
7	87763	16.81	1.5
7	88320	16.91	1.2451238477314
7	88885	17.01	0.83347870134691
7	89442	17.11	0.40470958876234
7	89999	17.21	-0.03059806222544
7	90556	17.31	-0.46243980387284
7	91113	17.41	-0.88148335305215
7	91670	17.51	-1.2791500631777
7	92227	17.61	-1.5
7	92784	17.71	-1.5
7	93341	17.81	-1.5
7	93898	17.91	-1.5
7	94463	18.01	-1.5
7	95020	18.11	-1.5
7	95577	18.21	-1.5
7	96134	18.31	-1.5
7	96691	18.41	-1.5
7	97248	18.51	-1.5
7	97805	18.61	-1.5
7	98362	18.71	-1.5
7	98919	18.81	-1.5
7	99476	18.91	-1.5
7	100041	19.01	-1.5
7	100598	19.11	-1.5
7	101155	19.21	-1.5
7	101712	19.31	-1.5
7	102269	19.41	-1.2657245815164
7	102826	19.51	-0.85377693481871
7	103383	19.61	-0.4243956003844
7	103940	19.71	0.011767371264867
7	104497	19.81	0.44464851836084
7	105054	19.91	0.86486384400239
7	105619	20.01	1.2637899041101
7	106176	20.11	1.5
7	106733	20.21	1.5
7	107290	20.31	1.5
7	107847	20.41	1.5
7	108404	20.51	1.5
7	108961	20.61	1.5
7	109518	20.71	1.5
7	110075	20.81	1.5
7	110632	20.91	1.5
7	111197	21.01	1.5
7	111754	21.11	1.5
7	112311	21.21	1.5
7	112868	21.31	1.5
7	113425	21.41	1.5
7	113982	21.51	1.5
7	114539	21.61	1.5
7	115096	21.71	1.5
7	115653	21.81	1.5
7	116210	21.91	1.2580915517753
7	116775	22.01	0.84625491634726
7	117332	22.11	0.41709956367407
7	117889	22.21	-0.018747163543662
7	118446	22.31	-0.45124369149508
7	119003	22.41	-0.87102520538678
7	119560	22.51	-1.2694848794604
7	120117	22.61	-1.5
7	120674	22.71	-1.5
7	121231	22.81	-1.5
7	121788	22.91	-1.5
7	122353	23.01	-1.5
7	122910	23.11	-1.5
7	123467	23.21	-1.5
7	124024	23.31	-1.5
7	124581	23.41	-1.5
7	125138	23.51	-1.5
7	125695	23.61	-1.5
7	126252	23.71	-1.5
7	126809	23.81	-1.5
7	127366	23.91	-1.5
7	127931	24.01	-1.5
7	128488	24.11	-1.5
7	129045	24.21	-1.5
7	129602	24.31	-1.5
7	130159	24.41	-1.2609239651119
7	130716	24.51	-0.84904615684549
7	131273	24.61	-0.41980696481121
7	131830	24.71	0.016157099446048
7	132387	24.81	0.44879633966007
7	132944	24.91	0.86873882266865
7	133509	25.01	1.2673715557193
7	134066	25.11	1.5
7	134623	25.21	1.5
7	135180	25.31	1.5
7	135737	25.41	1.5
7	136294	25.51	1.5
7	136851	25.61	1.5
7	137408	25.71	1.5
7	137965	25.81	1.5
7	138522	25.91	1.5
7	139087	26.01	1.5
7	139644	26.11	1.5
7	140201	26.21	1.5
7	140758	26.31	1.5
7	141315	26.41	1.5
7	141872	26.51	1.5
7	142429	26.61	1.5
7	142986	26.71	1.5
7	143543	26.81	1.5
7	144100	26.91	1.2598728518627
7	144665	27.01	0.84801032251372
7	145222	27.11	0.41880224309083
7	145779	27.21	-0.017118277442513
7	146336	27.31	-0.44970455708465
7	146893	27.41	-0.86958730431945
7	147450	27.51	-1.2681558149833
7	148007	27.61	-1.5
7	148564	27.71	-1.5
7	149121	27.81	-1.5
7	149678	27.91	-1.5
7	150243	28.01	-1.5
7	150800	28.11	-1.5
7	151357	28.21	-1.5
7	151914	28.31	-1.5
7	152471	28.41	-1.5
7	153028	28.51	-1.5
7	153585	28.61	-1.5
7	154142	28.71	-1.5
7	154699	28.81	-1.5
7	155256	28.91	-1.5
7	155821	29.01	-1.5
7	156378	29.11	-1.5
7	156935	29.21	-1.5
7	157492	29.31	-1.5
7	158049	29.41	-1.2602629232518
7	158606	29.51	-0.84839472385647
7	159163	29.61	-0.41917509845289
7	159720	29.71	0.016761581286932
7	160277	29.81	0.44936751475819
7	160834	29.91	0.86927243012153
7	161399	30.01	1.2678647739108
7	161956	30.11	1.5
7	162513	30.21	1.5
7	163070	30.31	1.5
7	163627	30.41	1.5
7	164184	30.51	1.5
7	164741	30.61	1.5
7	165298	30.71	1.5
7	165855	30.81	1.5
7	166412	30.91	1.5
7	166977	31.01	1.5
7	167534	31.11	1.5
7	168091	31.21	1.5
7	168648	31.31	1.5
7	169205	31.41	1.5
7	169762	31.51	1.5
7	170319	31.61	1.5
7	170876	31.71	1.5
7	171433	31.81	1.5
7	171990	31.91	1.2601181665206
7	172555	32.01	0.84825207129739
7	173112	32.11	0.41903673064385
7	173669	32.21	-0.016893952363201
7	174226	32.31	-0.44949259223613
7	174783	32.41	-0.8693892809366
7	175340	32.51	-1.2679727801774
7	175897	32.61	-1.5
7	176454	32.71	-1.5
7	177011	32.81	-1.5
7	177568	32.91	-1.5
7	178133	33.01	-1.5
7	178690	33.11	-1.5
7	179247	33.21	-1.5
7	179804	33.31	-1.5
7	180361	33.41	-1.5
7	180918	33.51	-1.5
7	181475	33.61	-1.5
7	182032	33.71	-1.5
7	182589	33.81	-1.5
7	183146	33.91	-1.5
7	183711	34.01	-1.5
7	184268	34.11	-1.5
7	184825	34.21	-1.5
7	185382	34.31	-1.5
7	185939	34.41	-1.2601718862039
7	186496	34.51	-0.84830501011572
7	187053	34.61	-0.41908807937784
7	187610	34.71	0.016844829035751
7	188167	34.81	0.44944617558619
7	188724	34.91	0.86934591722748
7	189289	35.01	1.2679326987084
7	189846	35.11	1.5
7	190403	35.21	1.5
7	190960	35.31	1.5
7	191517	35.41	1.5
7	192074	35.51	1.5
7	192631	35.61	1.5
7	193188	35.71	1.5
7	193745	35.81	1.5
7	194302	35.91	1.5
7	194867	36.01	1.5
7	195424	36.11	1.5
7	195981	36.21	1.5
7	196538	36.31	1.5
7	197095	36.41	1.5
7	197652	36.51	1.5
7	198209	36.61	1.5
7	198766	36.71	1.5
7	199323	36.81	1.5
7	199880	36.91	1.2601519506571
7	200445	37.01	0.84828536435041
7	201002	37.11	0.41906902369789
7	201559	37.21	-0.016863058860206
7	202116	37.31	-0.4494634009539
7	202673	37.41	-0.86936200963903
7	203230	37.51	-1.2679475730701
7	203787	37.61	-1.5
7	204344	37.71	-1.5
7	204901	37.81	-1.5
7	205458	37.91	-1.5
7	206023	38.01	-1.5
7	206580	38.11	-1.5
7	207137	38.21	-1.5
7	207694	38.31	-1.5
7	208251	38.41	-1.5
7	208808	38.51	-1.5
7	209365	38.61	-1.5
7	209922	38.71	-1.5
7	210479	38.81	-1.5
7	211036	38.91	-1.5
7	211601	39.01	-1.5
7	212158	39.11	-1.5
7	212715	39.21	-1.5
7	213272	39.31	-1.5
7	213829	39.41	-1.2601593488036
7	214386	39.51	-0.84829265495815
7	214943	39.61	-0.4190760953231
7	215500	39.71	0.016856293712618
7	216057	39.81	0.4494570085635
7	216614	39.91	0.86935603769236
7	217179	40.01	1.2679420531457
7	217736	40.11	1.5
7	218293	40.21	1.5
7	218850	40.31	1.5
7	219407	40.41	1.5
7	219964	40.51	1.5
7	220521	40.61	1.5
7	221078	40.71	1.5
7	221635	40.81	1.5
7	222192	40.91	1.5
7	222757	41.01	1.5
7	223314	41.11	1.5
7	223871	41.21	1.5
7	224428	41.31	1.5
7	224985	41.41	1.5
7	225542	41.51	1.5
7	226099	41.61	1.5
7	226656	41.71	1.5
7	227213	41.81	1.5
7	227770	41.91	1.2601566033284
7	228335	42.01	0.84828994939089
7	228892	42.11	0.41907347102095
7	229449	42.21	-0.016858804279924
7	230006	42.31	-0.4494593807994
7	230563	42.41	-0.86935825390022
7	231120	42.51	-1.2679441016066
7	231677	42.61	-1.5
7	232234	42.71	-1.5
7	232791	42.81	-1.5
7	233348	42.91	-1.5
7	233913	43.01	-1.5
7	234470	43.11	-1.5
7	235027	43.21	-1.5
7	235584	43.31	-1.5
7	236141	43.41	-1.5
7	236698	43.51	-1.5
7	237255	43.61	-1.5
7	237812	43.71	-1.5
7	238369	43.81	-1.5
7	238926	43.91	-1.5
7	239491	44.01	-1.5
7	240048	44.11	-1.5
7	240605	44.21	-1.5
7	241162	44.31	-1.5
7	241719	44.41	-1.2601576221816
7	242276	44.51	-0.84829095343409
7	242833	44.61	-0.41907444490639
7	243390	44.71	0.016857872601843
7	243947	44.81	0.44945850045652
7	244504	44.91	0.86935743145974
7	245069	45.01	1.2679433414174
7	245626	45.11	1.5
7	246183	45.21	1.5
7	246740	45.31	1.5
7	247297	45.41	1.5
7	247854	45.51	1.5
7	248411	45.61	1.5
7	248968	45.71	1.5
7	249525	45.81	1.5
7	250082	45.91	1.5
7	250647	46.01	1.5
7	251204	46.11	1.5
7	251761	46.21	1.5
7	252318	46.31	1.5
7	252875	46.41	1.5
7	253432	46.51	1.5
7	253989	46.61	1.5
7	254546	46.71	1.5
7	255103	46.81	1.5
7	255660	46.91	1.2601572440827
7	256225	47.01	0.84829058083129
7	256782	47.11	0.41907408349525
7	257339	47.21	-0.016858218349732
7	257896	47.31	-0.44945882715384
7	258453	47.41	-0.86935773666943
7	259010	47.51	-1.2679436235256
7	259567	47.61	-1.5
7	260124	47.71	-1.5
7	260681	47.81	-1.5
7	261238	47.91	-1.5
7	261803	48.01	-1.5
7	262360	48.11	-1.5
7	262917	48.21	-1.5
7	263474	48.31	-1.5
7	264031	48.41	-1.5
7	264588	48.51	-1.5
7	265145	48.61	-1.5
7	265702	48.71	-1.5
7	266259	48.81	-1.5
7	266816	48.91	-1.5
7	267381	49.01	-1.5
7	267938	49.11	-1.5
7	268495	49.21	-1.5
7	269052	49.31	-1.5
7	269609	49.41	-1.2601573843952
7	270166	49.51	-0.84829071910411
7	270723	49.61	-0.41907421761477
7	271280	49.71	0.016858090042899
7	271837	49.81	0.44945870591672
7	272394	49.91	0.86935762340638
7	272959	50.01	1.2679435188356
7	273516	50.11	1.5
7	274073	50.21	1.5
7	274630	50.31	1.5
7	275187	50.41	1.5
7	275744	50.51	1.5
7	276301	50.61	1.5
7	276858	50.71	1.5
7	277415	50.81	1.5
7	277972	50.91	1.5
7	278537	51.01	1.5
7	279094	51.11	1.5
7	279651	51.21	1.5
7	280208	51.31	1.5
7	280765	51.41	1.5
7	281322	51.51	1.5
7	281879	51.61	1.5
7	282436	51.71	1.5
7	282993	51.81	1.5
7	283550	51.91	1.2601573323257
7	284115	52.01	0.84829066779152
7	284672	52.11	0.41907416784349
7	285229	52.21	-0.016858137657085
7	285786	52.31	-0.44945875090737
7	286343	52.41	-0.86935766543788
7	286900	52.51	-1.2679435576857
7	287457	52.61	-1.5
7	288014	52.71	-1.5
7	288571	52.81	-1.5
7	289128	52.91	-1.5
7	289693	53.01	-1.5
7	290250	53.11	-1.5
7	290807	53.21	-1.5
7	291364	53.31	-1.5
7	291921	53.41	-1.5
7	292478	53.51	-1.5
7	293035	53.61	-1.5
7	293592	53.71	-1.5
7	294149	53.81	-1.5
7	294706	53.91	-1.5
7	295271	54.01	-1.5
7	295828	54.11	-1.5
7	296385	54.21	-1.5
7	296942	54.31	-1.5
7	297499	54.41	-1.2601573516497
7	298056	54.51	-0.8482906868347
7	298613	54.61	-0.41907418631469
7	299170	54.71	0.016858119986384
7	299727	54.81	0.44945873421026
7	300284	54.91	0.86935764983889
7	300849	55.01	1.2679435432672
7	301406	55.11	1.5
7	301963	55.21	1.5
7	302520	55.31	1.5
7	303077	55.41	1.5
7	303634	55.51	1.5
7	304191	55.61	1.5
7	304748	55.71	1.5
7	305305	55.81	1.5
7	305862	55.91	1.5
7	306427	56.01	1.5
7	306984	56.11	1.5
7	307541	56.21	1.5
7	308098	56.31	1.5
7	308655	56.41	1.5
7	309212	56.51	1.5
7	309769	56.61	1.5
7	310326	56.71	1.5
7	310883	56.81	1.5
7	311440	56.91	1.2601573444777
7	312005	57.01	0.84829067976691
7	312562	57.11	0.41907417945924
7	313119	57.21	-0.016858126544712
7	313676	57.31	-0.44945874040717
7	314233	57.41	-0.86935765562825
7	314790	57.51	-1.2679435486185
7	315347	57.61	-1.5
7	315904	57.71	-1.5
7	316461	57.81	-1.5
7	317018	57.91	-1.5
7	317583	58.01	-1.5
7	318140	58.11	-1.5
7	318697	58.21	-1.5
7	319254	58.31	-1.5
7	319811	58.41	-1.5
7	320368	58.51	-1.5
7	320925	58.61	-1.5
7	321482	58.71	-1.5
7	322039	58.81	-1.5
7	322596	58.91	-1.5
7	323161	59.01	-1.5
7	323718	59.11	-1.5
7	324275	59.21	-1.5
7	324832	59.31	-1.5
7	325389	59.41	-1.2601573471393
7	325946	59.51	-0.84829068238978
7	326503	59.61	-0.41907418200329
7	327060	59.71	0.016858124110932
7	327617	59.81	0.44945873810752
7	328174	59.91	0.8693576534799
6	232	1.11	1.2391545567425e-07
6	788	1.21	2.514333630188e-07
6	1344	1.31	3.5153284727585e-07
6	1900	1.41	4.2734420446777e-07
6	2456	1.51	4.8187125401e-07
6	3012	1.61	5.1795971955926e-07
6	3568	1.71	5.3827413637464e-07
6	4124	1.81	5.4528506154838e-07
6	4680	1.91	5.4125663950799e-07
6	5244	2.01	5.2824375984528e-07
6	5800	2.11	5.080941889446e-07
6	6356	2.21	4.8245141215375e-07
6	6912	2.31	4.5276244975412e-07
6	7468	2.41	4.202860282021e-07
6	8024	2.51	3.8610643571246e-07
6	8580	2.61	3.5114133822844e-07
6	9136	2.71	3.1616025353287e-07
6	9692	2.81	2.8179307776099e-07
6	10248	2.91	2.4854536206931e-07
6	10812	3.01	2.1681287876163e-07
6	11368	3.11	1.8689298997288e-07
6	11924	3.21	1.5899530581009e-07
6	12480	3.31	1.3325838210676e-07
6	13036	3.41	1.0975469422192e-07
6	13592	3.51	8.8505203166278e-08
6	14148	3.61	6.948575048682e-08
6	14704	3.71	5.263665059374e-08
6	15260	3.81	3.7870506730542e-08
6	15816	3.91	2.5077895315917e-08
6	16380	4.01	1.4133405557004e-08
6	16936	4.11	4.9016790626411e-09
6	17492	4.21	-2.7593927143243e-09
6	18048	4.31	-8.9940499492513e-09
6	18604	4.41	-1.3947598631603e-08
6	19160	4.51	-1.7761081494427e-08
6	19716	4.61	-2.0570567471623e-08
6	20272	4.71	-2.2507151697937e-08
6	20828	4.81	-2.3691626438449e-08
6	21384	4.91	-2.4239099616352e-08
6	21949	5.01	-2.4253310471067e-08
6	22506	5.11	0.0068264050138822
6	23063	5.21	0.074594790622484
6	23620	5.31	0.19005130280156
6	24177	5.41	0.34050268492081
6	24734	5.51	0.51301635125718
6	25291	5.61	0.69025455388463
6	25848	5.71	0.83572669994751
6	26405	5.81	0.95506452764909
6	26962	5.91	1.0529631117155
6	27527	6.01	1.1332740487145
6	28084	6.11	1.1991569893425
6	28641	6.21	1.2532039476781
6	29198	6.31	1.2975412780619
6	29755	6.41	1.3339133316631
6	30312	6.51	1.3635927194422
6	30869	6.61	1.3702053558546
6	31426	6.71	1.3272611868377
6	31983	6.81	1.2373810863703
6	32540	6.91	1.10404336986
6	33105	7.01	0.93147091462953
6	33662	7.11	0.72451590042988
6	34219	7.21	0.48854317855174
6	34776	7.31	0.22931329168649
6	35333	7.41	-0.044839402561792
6	35890	7.51	-0.30626147784645
6	36447	7.61	-0.52071863285548
6	37004	7.71	-0.69664819536399
6	37561	7.81	-0.84097171286572
6	38118	7.91	-0.95936726507979
6	38683	8.01	-1.0564928550515
6	39240	8.11	-1.1361696676595
6	39797	8.21	-1.2015324054218
6	40354	8.31	-1.2551526162195
6	40911	8.41	-1.299139864987
6	41468	8.51	-1.3352247297291
6	42025	8.61	-1.3648268871716
6	42582	8.71	-1.3891109667025
6	43139	8.81	-1.40903237006
6	43696	8.91	-1.4253748594349
6	44261	9.01	-1.4387813928092
6	44818	9.11	-1.4497794196703
6	45375	9.21	-1.4588016323081
6	45932	9.31	-1.466202989106
6	46489	9.41	-1.4722746795719
6	47046	9.51	-1.4696249147679
6	47603	9.61	-1.3967850640324
6	48160	9.71	-1.2587757642699
6	48717	9.81	-1.066095221946
6	49274	9.91	-0.8292333503487
6	49839	10.01	-0.55852907850635
6	50396	10.11	-0.26404116086489
6	50953	10.21	0.039432698568831
6	51510	10.31	0.30182609741765
6	52067	10.41	0.51708007606237
6	52624	10.51	0.69366331148437
6	53181	10.61	0.83852306844925
6	53738	10.71	0.9573585237959
6	54295	10.81	1.0548449875539
6	54852	10.91	1.1348178423589
6	55417	11.01	1.2004234378345
6	55974	11.11	1.2542428765453
6	56531	11.21	1.2983935615914
6	57088	11.31	1.3346125010074
6	57645	11.41	1.3643246463804
6	58202	11.51	1.3886989543238
6	58759	11.61	1.4086943764056
6	59316	11.71	1.425097586916
6	59873	11.81	1.4385539327701
6	60430	11.91	1.4345627372659
6	60995	12.01	1.3623449188493
6	61552	12.11	1.2299875654136
6	62109	12.21	1.046144839739
6	62666	12.31	0.81967864244703
6	63223	12.41	0.55952045900121
6	63780	12.51	0.27454262944673
6	64337	12.61	-0.022341644921298
6	64894	12.71	-0.28780548061533
6	65451	12.81	-0.50557828690501
6	66008	12.91	-0.68422783830435
6	66573	13.01	-0.83078269406727
6	67130	13.11	-0.95100872083052
6	67687	13.21	-1.0496359374866
6	68244	13.31	-1.1305446069922
6	68801	13.41	-1.1969178964666
6	69358	13.51	-1.2513671116437
6	69915	13.61	-1.2960344327443
6	70472	13.71	-1.3326771936686
6	71029	13.81	-1.3627370202961
6	71586	13.91	-1.387396547964
6	72151	14.01	-1.4076259495617
6	72708	14.11	-1.4242211047701
6	73265	14.21	-1.4378349121323
6	73822	14.31	-1.4490029758559
6	74379	14.41	-1.4542593951862
6	74936	14.51	-1.406745439008
6	75493	14.61	-1.2938574955371
6	76050	14.71	-1.1248409052335
6	76607	14.81	-0.90912582143545
6	77164	14.91	-0.65618298377075
6	77729	15.01	-0.37539052554685
6	78286	15.11	-0.078063005097917
6	78843	15.21	0.20543869667193
6	79400	15.31	0.43800883573084
6	79957	15.41	0.6287973539095
6	80514	15.51	0.78531039043277
6	81071	15.61	0.91370559385275
6	81628	15.71	1.0190343806912
6	82185	15.81	1.1054406719015
6	82742	15.91	1.1763239259945
6	83307	16.01	1.2344728829795
6	83864	16.11	1.2821752809813
6	84421	16.21	1.3213078620826
6	84978	16.31	1.3534102084588
6	85535	16.41	1.37974531373
6	86092	16.51	1.401349272566
6	86649	16.61	1.4190720434684
6	87206	16.71	1.4336108884475
6	87763	16.81	1.445537805208
6	88320	16.91	1.4502949065324
6	88885	17.01	1.3935559567514
6	89442	17.11	1.2733368701429
6	89999	17.21	1.0986742440515
6	90556	17.31	0.87879676591136
6	91113	17.41	0.62298329275663
6	91670	17.51	0.34043137853068
6	92227	17.61	0.043031849076769
6	92784	17.71	-0.23417644595618
6	93341	17.81	-0.46158379949794
6	93898	17.91	-0.64813703535584
6	94463	18.01	-0.80117566522766
6	95020	18.11	-0.92672064505805
6	95577	18.21	-1.0297112558195
6	96134	18.31	-1.114199428261
6	96691	18.41	-1.1835091568834
6	97248	18.51	-1.2403672749233
6	97805	18.61	-1.2870107353912
6	98362	18.71	-1.3252746188865
6	98919	18.81	-1.3566643306593
6	99476	18.91	-1.382414827345
6	100041	19.01	-1.4035392035215
6	100598	19.11	-1.4208685496044
6	101155	19.21	-1.4350846492011
6	101712	19.31	-1.4467468023362
6	102269	19.41	-1.4517201941779
6	102826	19.51	-1.3984004323895
6	103383	19.61	-1.2808993810108
6	103940	19.71	-1.1083308503789
6	104497	19.81	-0.88999806037009
6	105054	19.91	-0.63525086467102
6	105619	20.01	-0.35335363991607
6	106176	20.11	-0.055983891309808
6	106733	20.21	0.22355126013096
6	107290	20.31	0.45286744637067
6	107847	20.41	0.64098658988634
6	108404	20.51	0.79530980944291
6	108961	20.61	0.9219086002382
6	109518	20.71	1.0257637030328
6	110075	20.81	1.1109610600439
6	110632	20.91	1.1808525670215
6	111197	21.01	1.2381879459461
6	111754	21.11	1.2852229265697
6	112311	21.21	1.3238079929597
6	112868	21.31	1.3554611865729
6	113425	21.41	1.3814278301389
6	113982	21.51	1.4027295220426
6	114539	21.61	1.4202043287792
6	115096	21.71	1.4345397567762
6	115653	21.81	1.4462998007623
6	116210	21.91	1.4512038299458
6	116775	22.01	1.3966149622043
6	117332	22.11	1.2781048258539
6	117889	22.21	1.1047586168253
6	118446	22.31	0.88585193073918
6	119003	22.41	0.63070830476057
6	119560	22.51	0.34856734380959
6	120117	22.61	0.051185654370656
6	120674	22.71	-0.22748748564574
6	121231	22.81	-0.45609652228009
6	121788	22.91	-0.64363555681872
6	122353	23.01	-0.79748288496297
6	122910	23.11	-0.92369127904632
6	123467	23.21	-1.0272261205632
6	124024	23.31	-1.1121607517786
6	124581	23.41	-1.1818367320966
6	125138	23.51	-1.2389953040923
6	125695	23.61	-1.2858852414528
6	126252	23.71	-1.3243513218477
6	126809	23.81	-1.3559069055024
6	127366	23.91	-1.3817934749049
6	127931	24.01	-1.4030294781044
6	128488	24.11	-1.4204503972252
6	129045	24.21	-1.434741618608
6	129602	24.31	-1.4464653977726
6	130159	24.41	-1.4513952146881
6	130716	24.51	-1.3972773206763
6	131273	24.61	-1.2791416668563
6	131830	24.71	-1.1060840673021
6	132387	24.81	-0.88739036841652
6	132944	24.91	-0.63239387292597
6	133509	25.01	-0.35034337810913
6	134066	25.11	-0.052966136909305
6	134623	25.21	0.2260268698226
6	135180	25.31	0.45489830857264
6	135737	25.41	0.64265260424108
6	136294	25.51	0.79667652148672
6	136851	25.61	0.92302978013947
6	137408	25.71	1.026683461059
6	137965	25.81	1.1117155819772
6	138522	25.91	1.1814715378073
6	139087	26.01	1.2386957175785
6	139644	26.11	1.2856394761656
6	140201	26.21	1.3241497087126
6	140758	26.31	1.3557415125099
6	141315	26.41	1.381657795045
6	141872	26.51	1.4029181733619
6	142429	26.61	1.4203590885685
6	142986	26.71	1.4346667137069
6	143543	26.81	1.4464039496644
6	144100	26.91	1.4513241957726
6	144665	27.01	1.3970315218256
6	145222	27.11	1.2787568961965
6	145779	27.21	1.1055921925461
6	146336	27.31	0.88681945319387
6	146893	27.41	0.63176835684509
6	147450	27.51	0.34968428947479
6	148007	27.61	0.05230539719534
6	148564	27.71	-0.22656890652399
6	149121	27.81	-0.45534296745871
6	149678	27.91	-0.64301737940262
6	150243	28.01	-0.79697576417068
6	150800	28.11	-0.92327526336611
6	151357	28.21	-1.0268848428069
6	151914	28.31	-1.1118807851517
6	152471	28.41	-1.1816070619506
6	153028	28.51	-1.2388068945789
6	153585	28.61	-1.2857306800289
6	154142	28.71	-1.3242245276459
6	154699	28.81	-1.3558028900945
6	155256	28.91	-1.3817081460427
6	155821	29.01	-1.4029594787171
6	156378	29.11	-1.4203929733469
6	156935	29.21	-1.4346945110272
6	157492	29.31	-1.4464267531491
6	158049	29.41	-1.4513505510322
6	158606	29.51	-1.3971227384761
6	159163	29.61	-1.2788996857307
6	159720	29.71	-1.1057747287555
6	160277	29.81	-0.88703132157555
6	160834	29.91	-0.63200048778391
6	161399	30.01	-0.34992887929981
6	161956	30.11	-0.052550599748002
6	162513	30.21	0.22636775502605
6	163070	30.31	0.45517795316989
6	163627	30.41	0.64288201021121
6	164184	30.51	0.79686471428424
6	164741	30.61	0.92318416378099
6	165298	30.71	1.0268101094166
6	165855	30.81	1.1118194777413
6	166412	30.91	1.1815567685208
6	166977	31.01	1.2387656364488
6	167534	31.11	1.2856968339918
6	168091	31.21	1.324196762107
6	168648	31.31	1.3557801126822
6	169205	31.41	1.3816894606308
6	169762	31.51	1.4029441501705
6	170319	31.61	1.4203803985996
6	170876	31.71	1.4346841953547
6	171433	31.81	1.4464182907037
6	171990	31.91	1.451340770512
6	172555	32.01	1.397088887688
6	173112	32.11	1.2788466960817
6	173669	32.21	1.105706988989
6	174226	32.31	0.88695269654693
6	174783	32.41	0.6319143432556
6	175340	32.51	0.34983811123936
6	175897	32.61	0.052459604302157
6	176454	32.71	-0.22644240298604
6	177011	32.81	-0.45523919049693
6	177568	32.91	-0.64293224614822
6	178133	33.01	-0.7969059252499
6	178690	33.11	-0.92321797112582
6	179247	33.21	-1.0268378432144
6	179804	33.31	-1.1118422291158
6	180361	33.41	-1.181575432572
6	180918	33.51	-1.2387809474717
6	181475	33.61	-1.2857093943634
6	182032	33.71	-1.3242070659867
6	182589	33.81	-1.3557885654517
6	183146	33.91	-1.3816963948457
6	183711	34.01	-1.4029498386424
6	184268	34.11	-1.4203850651278
6	184825	34.21	-1.434688023533
6	185382	34.31	-1.4464214311442
6	185939	34.41	-1.4513444000944
6	186496	34.51	-1.3971014498232
6	187053	34.61	-1.2788663607083
6	187610	34.71	-1.1057321274315
6	188167	34.81	-0.88698187454526
6	188724	34.91	-0.63194631176486
6	189289	35.01	-0.34987179555586
6	189846	35.11	-0.052493373001994
6	190403	35.21	0.22641470089013
6	190960	35.31	0.45521646512974
6	191517	35.41	0.64291360343276
6	192074	35.51	0.79689063173021
6	192631	35.61	0.9232054251143
6	193188	35.71	1.0268275511155
6	193745	35.81	1.1118337860104
6	194302	35.91	1.1815685062846
6	194867	36.01	1.2387752655037
6	195424	36.11	1.2857047331707
6	195981	36.21	1.324203242185
6	196538	36.31	1.3557854286034
6	197095	36.41	1.3816938215378
6	197652	36.51	1.4029477276342
6	198209	36.61	1.4203833333653
6	198766	36.71	1.4346866028841
6	199323	36.81	1.4464202657173
6	199880	36.91	1.4513430531448
6	200445	37.01	1.3970967879747
6	201002	37.11	1.2788590631025
6	201559	37.21	1.1057227984747
6	202116	37.31	0.8869710464964
6	202673	37.41	0.63193444814829
6	203230	37.51	0.34985929519813
6	203787	37.61	0.052480841329228
6	204344	37.71	-0.22642498122742
6	204901	37.81	-0.45522489858705
6	205458	37.91	-0.64292052180406
6	206023	38.01	-0.79689630720416
6	206580	38.11	-0.92321008097898
6	207137	38.21	-1.0268313705456
6	207694	38.31	-1.1118369192733
6	208251	38.41	-1.1815710766513
6	208808	38.51	-1.2387773740993
6	209365	38.61	-1.2857064629529
6	209922	38.71	-1.3242046612092
6	210479	38.81	-1.3557865926966
6	211036	38.91	-1.3816947764997
6	211601	39.01	-1.4029485110349
6	212158	39.11	-1.420383976027
6	212715	39.21	-1.4346871300905
6	213272	39.31	-1.4464206982101
6	213829	39.41	-1.4513435530016
6	214386	39.51	-1.3970985180013
6	214943	39.61	-1.2788617712673
6	215500	39.71	-1.1057262604808
6	216057	39.81	-0.88697506482056
6	216614	39.91	-0.63193885077553
6	217179	40.01	-0.34986393412169
6	217736	40.11	-0.052485491873711
6	218293	40.21	0.22642116616005
6	218850	40.31	0.45522176890245
6	219407	40.41	0.64291795437263
6	219964	40.51	0.79689420101552
6	220521	40.61	0.92320835317068
6	221078	40.71	1.0268299531418
6	221635	40.81	1.1118357565078
6	222192	40.91	1.1815701227786
6	222757	41.01	1.2387765915918
6	223314	41.11	1.2857058210248
6	223871	41.21	1.3242041346043
6	224428	41.31	1.3557861606976
6	224985	41.41	1.3816944221094
6	225542	41.51	1.4029482203117
6	226099	41.61	1.420383737533
6	226656	41.71	1.4346869344426
6	227213	41.81	1.4464205377106
6	227770	41.91	1.4513433675031
6	228335	42.01	1.3970978759829
6	228892	42.11	1.2788607662586
6	229449	42.21	1.1057249757194
6	230006	42.31	0.88697357360701
6	230563	42.41	0.6319372169461
6	231120	42.51	0.3498622126024
6	231677	42.61	0.052483766041789
6	232234	42.71	-0.22642258194381
6	232791	42.81	-0.45522293033819
6	233348	42.91	-0.64291890715467
6	233913	43.01	-0.79689498262923
6	234470	43.11	-0.92320899436622
6	235027	43.21	-1.0268304791456
6	235584	43.31	-1.111836188014
6	236141	43.41	-1.1815704767642
6	236698	43.51	-1.2387768819831
6	237255	43.61	-1.2857060592466
6	237812	43.71	-1.3242043300295
6	238369	43.81	-1.3557863210146
6	238926	43.91	-1.3816945536259
6	239491	44.01	-1.4029483282012
6	240048	44.11	-1.4203838260396
6	240605	44.21	-1.4346870070494
6	241162	44.31	-1.4464205972729
6	241719	44.41	-1.4513434363423
6	242276	44.51	-1.3970981142382
6	242833	44.61	-1.2788611392207
6	243390	44.71	-1.1057254524978
6	243947	44.81	-0.88697412700043
6	244504	44.91	-0.63193782326394
6	245069	45.01	-0.34986285146203
6	245626	45.11	-0.052484406502273
6	246183	45.21	0.22642205654293
6	246740	45.31	0.45522249932652
6	247297	45.41	0.64291855357439
6	247854	45.51	0.7968946925704
6	248411	45.61	0.92320875641683
6	248968	45.71	1.0268302839439
6	249525	45.81	1.1118360278807
6	250082	45.91	1.1815703453994
6	250647	46.01	1.2387767742183
6	251204	46.11	1.285705970842
6	251761	46.21	1.3242042575069
6	252318	46.31	1.3557862615201
6	252875	46.41	1.3816945048191
6	253432	46.51	1.4029482881629
6	253989	46.61	1.4203837931944
6	254546	46.71	1.4346869801042
6	255103	46.81	1.4464205751686
6	255660	46.91	1.4513434107954
6	256225	47.01	1.3970980258208
6	256782	47.11	1.2788610008133
6	257339	47.21	1.1057252755645
6	257896	47.31	0.88697392163581
6	258453	47.41	0.63193759825886
6	259010	47.51	0.34986261438021
6	259567	47.61	0.052484168826084
6	260124	47.71	-0.22642225152048
6	260681	47.81	-0.45522265927609
6	261238	47.91	-0.64291868478925
6	261803	48.01	-0.79689480021266
6	262360	48.11	-0.92320884472166
6	262917	48.21	-1.0268303563844
6	263474	48.31	-1.1118360873073
6	264031	48.41	-1.1815703941497
6	264588	48.51	-1.2387768142112
6	265145	48.61	-1.2857060036499
6	265702	48.71	-1.3242042844208
6	266259	48.81	-1.3557862835995
6	266816	48.91	-1.3816945229319
6	267381	49.01	-1.402948303021
6	267938	49.11	-1.4203838053835
6	268495	49.21	-1.434686990104
6	269052	49.31	-1.4464205833722
6	269609	49.41	-1.4513434202772
6	270166	49.51	-1.3970980586329
6	270723	49.61	-1.278861052177
6	271280	49.71	-1.105725341225
6	271837	49.81	-0.88697399784721
6	272394	49.91	-0.63193768175829
6	272959	50.01	-0.34986270236175
6	273516	50.11	-0.05248425702824
6	274073	50.21	0.22642217916413
6	274630	50.31	0.45522259991877
6	275187	50.41	0.6429186360954
6	275744	50.51	0.79689476026594
6	276301	50.61	0.92320881195107
6	276858	50.71	1.0268303295014
6	277415	50.81	1.1118360652539
6	277972	50.91	1.1815703760583
6	278537	51.01	1.2387767993697
6	279094	51.11	1.2857059914751
6	279651	51.21	1.3242042744334
6	280208	51.31	1.3557862754059
6	280765	51.41	1.3816945162102
6	281322	51.51	1.4029482975072
6	281879	51.61	1.4203838008605
6	282436	51.71	1.4346869863935
6	282993	51.81	1.4464205803286
6	283550	51.91	1.451343416759
6	284115	52.01	1.3970980464567
6	284672	52.11	1.2788610331157
6	285229	52.21	1.1057253168584
6	285786	52.31	0.88697396956547
6	286343	52.41	0.63193765077223
6	286900	52.51	0.34986266971266
6	287457	52.61	0.052484224297444
6	288014	52.71	-0.22642220601448
6	288571	52.81	-0.45522262194524
6	289128	52.91	-0.64291865416521
6	289693	53.01	-0.79689477508964
6	290250	53.11	-0.9232088241113
6	290807	53.21	-1.0268303394767
6	291364	53.31	-1.1118360734379
6	291921	53.41	-1.1815703827718
6	292478	53.51	-1.2387768048768
6	293035	53.61	-1.2857059959927
6	293592	53.71	-1.3242042781389
6	294149	53.81	-1.3557862784456
6	294706	53.91	-1.3816945187042
6	295271	54.01	-1.4029482995529
6	295828	54.11	-1.4203838025381
6	296385	54.21	-1.4346869877695
6	296942	54.31	-1.4464205814569
6	297499	54.41	-1.4513434180639
6	298056	54.51	-1.397098050975
6	298613	54.61	-1.2788610401895
6	299170	54.71	-1.1057253259011
6	299727	54.81	-0.88697398006055
6	300284	54.91	-0.63193766227059
6	300849	55.01	-0.34986268182813
6	301406	55.11	-0.052484236443462
6	301963	55.21	0.22642219605018
6	302520	55.31	0.4552226137708
6	303077	55.41	0.6429186474584
6	303634	55.51	0.79689476958791
6	304191	55.61	0.92320881959758
6	304748	55.71	1.0268303357741
6	305305	55.81	1.1118360704
6	305862	55.91	1.18157038028
6	306427	56.01	1.2387768028326
6	306984	56.11	1.2857059943155
6	307541	56.21	1.3242042767637
6	308098	56.31	1.355786277318
6	308655	56.41	1.3816945177794
6	309212	56.51	1.4029482987947
6	309769	56.61	1.420383801916
6	310326	56.71	1.4346869872593
6	310883	56.81	1.4464205810384
6	311440	56.91	1.4513434175793
6	312005	57.01	1.3970980492978
6	312562	57.11	1.2788610375637
6	313119	57.21	1.1057253225449
6	313676	57.31	0.886973976165
6	314233	57.41	0.63193765800307
6	314790	57.51	0.34986267733181
6	315347	57.61	0.052484231935068
6	315904	57.71	-0.22642219974927
6	316461	57.81	-0.45522261680553
6	317018	57.91	-0.64291864994814
6	317583	58.01	-0.79689477163036
6	318140	58.11	-0.92320882127339
6	318697	58.21	-1.026830337149
6	319254	58.31	-1.1118360715276
6	319811	58.41	-1.1815703812051
6	320368	58.51	-1.2387768035918
6	320925	58.61	-1.2857059949379
6	321482	58.71	-1.3242042772738
6	322039	58.81	-1.3557862777361
6	322596	58.91	-1.3816945181215
6	323161	59.01	-1.4029482990757
6	323718	59.11	-1.4203838021466
6	324275	59.21	-1.4346869874483
6	324832	59.31	-1.4464205811937
6	325389	59.41	-1.4513434177591
6	325946	59.51	-1.3970980499199
6	326503	59.61	-1.2788610385382
6	327060	59.71	-1.1057253237905
6	327617	59.81	-0.88697397761095
6	328174	59.91	-0.63193765958722
5	232	1.11	36.55
5	788	1.21	36.55
5	1344	1.31	36.55
5	1900	1.41	36.55
5	2456	1.51	36.55
5	3012	1.61	36.55
5	3568	1.71	36.55
5	4124	1.81	36.55
5	4680	1.91	36.55
5	5244	2.01	36.55
5	5800	2.11	36.55
5	6356	2.21	36.55
5	6912	2.31	36.55
5	7468	2.41	36.55
5	8024	2.51	36.55
5	8580	2.61	36.55
5	9136	2.71	36.55
5	9692	2.81	36.55
5	10248	2.91	36.55
5	10812	3.01	36.55
5	11368	3.11	36.55
5	11924	3.21	36.55
5	12480	3.31	36.55
5	13036	3.41	36.55
5	13592	3.51	36.55
5	14148	3.61	36.55
5	14704	3.71	36.55
5	15260	3.81	36.55
5	15816	3.91	36.55
5	16380	4.01	36.55
5	16936	4.11	36.55
5	17492	4.21	36.55
5	18048	4.31	36.55
5	18604	4.41	36.55
5	19160	4.51	36.55
5	19716	4.61	36.55
5	20272	4.71	36.55
5	20828	4.81	36.55
5	21384	4.91	36.55
5	21949	5.01	36.55
5	22506	5.11	36.55
5	23063	5.21	36.55
5	23620	5.31	36.55
5	24177	5.41	36.55
5	24734	5.51	36.55
5	25291	5.61	36.55
5	25848	5.71	36.55
5	26405	5.81	36.55
5	26962	5.91	36.55
5	27527	6.01	36.55
5	28084	6.11	36.55
5	28641	6.21	36.55
5	29198	6.31	36.55
5	29755	6.41	36.55
5	30312	6.51	36.55
5	30869	6.61	36.55
5	31426	6.71	36.55
5	31983	6.81	36.55
5	32540	6.91	36.55
5	33105	7.01	36.55
5	33662	7.11	36.55
5	34219	7.21	36.55
5	34776	7.31	36.55
5	35333	7.41	36.55
5	35890	7.51	36.55
5	36447	7.61	36.55
5	37004	7.71	36.55
5	37561	7.81	36.55
5	38118	7.91	36.55
5	38683	8.01	36.55
5	39240	8.11	36.55
5	39797	8.21	36.55
5	40354	8.31	36.55
5	40911	8.41	36.55
5	41468	8.51	36.55
5	42025	8.61	36.55
5	42582	8.71	36.55
5	43139	8.81	36.55
5	43696	8.91	36.55
5	44261	9.01	36.55
5	44818	9.11	36.55
5	45375	9.21	36.55
5	45932	9.31	36.55
5	46489	9.41	36.55
5	47046	9.51	36.55
5	47603	9.61	36.55
5	48160	9.71	36.55
5	48717	9.81	36.55
5	49274	9.91	36.55
5	49839	10.01	36.55
5	50396	10.11	36.55
5	50953	10.21	36.55
5	51510	10.31	36.55
5	52067	10.41	36.55
5	52624	10.51	36.55
5	53181	10.61	36.55
5	53738	10.71	36.55
5	54295	10.81	36.55
5	54852	10.91	36.55
5	55417	11.01	36.55
5	55974	11.11	36.55
5	56531	11.21	36.55
5	57088	11.31	36.55
5	57645	11.41	36.55
5	58202	11.51	36.55
5	58759	11.61	36.55
5	59316	11.71	36.55
5	59873	11.81	36.55
5	60430	11.91	36.55
5	60995	12.01	36.55
5	61552	12.11	36.55
5	62109	12.21	36.55
5	62666	12.31	36.55
5	63223	12.41	36.55
5	63780	12.51	36.55
5	64337	12.61	36.55
5	64894	12.71	36.55
5	65451	12.81	36.55
5	66008	12.91	36.55
5	66573	13.01	36.55
5	67130	13.11	36.55
5	67687	13.21	36.55
5	68244	13.31	36.55
5	68801	13.41	36.55
5	69358	13.51	36.55
5	69915	13.61	36.55
5	70472	13.71	36.55
5	71029	13.81	36.55
5	71586	13.91	36.55
5	72151	14.01	36.55
5	72708	14.11	36.55
5	73265	14.21	36.55
5	73822	14.31	36.55
5	74379	14.41	36.55
5	74936	14.51	36.55
5	75493	14.61	36.55
5	76050	14.71	36.55
5	76607	14.81	36.55
5	77164	14.91	36.55
5	77729	15.01	36.55
5	78286	15.11	36.55
5	78843	15.21	36.55
5	79400	15.31	36.55
5	79957	15.41	36.55
5	80514	15.51	36.55
5	81071	15.61	36.55
5	81628	15.71	36.55
5	82185	15.81	36.55
5	82742	15.91	36.55
5	83307	16.01	36.55
5	83864	16.11	36.55
5	84421	16.21	36.55
5	84978	16.31	36.55
5	85535	16.41	36.55
5	86092	16.51	36.55
5	86649	16.61	36.55
5	87206	16.71	36.55
5	87763	16.81	36.55
5	88320	16.91	36.55
5	88885	17.01	36.55
5	89442	17.11	36.55
5	89999	17.21	36.55
5	90556	17.31	36.55
5	91113	17.41	36.55
5	91670	17.51	36.55
5	92227	17.61	36.55
5	92784	17.71	36.55
5	93341	17.81	36.55
5	93898	17.91	36.55
5	94463	18.01	36.55
5	95020	18.11	36.55
5	95577	18.21	36.55
5	96134	18.31	36.55
5	96691	18.41	36.55
5	97248	18.51	36.55
5	97805	18.61	36.55
5	98362	18.71	36.55
5	98919	18.81	36.55
5	99476	18.91	36.55
5	100041	19.01	36.55
5	100598	19.11	36.55
5	101155	19.21	36.55
5	101712	19.31	36.55
5	102269	19.41	36.55
5	102826	19.51	36.55
5	103383	19.61	36.55
5	103940	19.71	36.55
5	104497	19.81	36.55
5	105054	19.91	36.55
5	105619	20.01	36.55
5	106176	20.11	36.55
5	106733	20.21	36.55
5	107290	20.31	36.55
5	107847	20.41	36.55
5	108404	20.51	36.55
5	108961	20.61	36.55
5	109518	20.71	36.55
5	110075	20.81	36.55
5	110632	20.91	36.55
5	111197	21.01	36.55
5	111754	21.11	36.55
5	112311	21.21	36.55
5	112868	21.31	36.55
5	113425	21.41	36.55
5	113982	21.51	36.55
5	114539	21.61	36.55
5	115096	21.71	36.55
5	115653	21.81	36.55
5	116210	21.91	36.55
5	116775	22.01	36.55
5	117332	22.11	36.55
5	117889	22.21	36.55
5	118446	22.31	36.55
5	119003	22.41	36.55
5	119560	22.51	36.55
5	120117	22.61	36.55
5	120674	22.71	36.55
5	121231	22.81	36.55
5	121788	22.91	36.55
5	122353	23.01	36.55
5	122910	23.11	36.55
5	123467	23.21	36.55
5	124024	23.31	36.55
5	124581	23.41	36.55
5	125138	23.51	36.55
5	125695	23.61	36.55
5	126252	23.71	36.55
5	126809	23.81	36.55
5	127366	23.91	36.55
5	127931	24.01	36.55
5	128488	24.11	36.55
5	129045	24.21	36.55
5	129602	24.31	36.55
5	130159	24.41	36.55
5	130716	24.51	36.55
5	131273	24.61	36.55
5	131830	24.71	36.55
5	132387	24.81	36.55
5	132944	24.91	36.55
5	133509	25.01	36.55
5	134066	25.11	36.55
5	134623	25.21	36.55
5	135180	25.31	36.55
5	135737	25.41	36.55
5	136294	25.51	36.55
5	136851	25.61	36.55
5	137408	25.71	36.55
5	137965	25.81	36.55
5	138522	25.91	36.55
5	139087	26.01	36.55
5	139644	26.11	36.55
5	140201	26.21	36.55
5	140758	26.31	36.55
5	141315	26.41	36.55
5	141872	26.51	36.55
5	142429	26.61	36.55
5	142986	26.71	36.55
5	143543	26.81	36.55
5	144100	26.91	36.55
5	144665	27.01	36.55
5	145222	27.11	36.55
5	145779	27.21	36.55
5	146336	27.31	36.55
5	146893	27.41	36.55
5	147450	27.51	36.55
5	148007	27.61	36.55
5	148564	27.71	36.55
5	149121	27.81	36.55
5	149678	27.91	36.55
5	150243	28.01	36.55
5	150800	28.11	36.55
5	151357	28.21	36.55
5	151914	28.31	36.55
5	152471	28.41	36.55
5	153028	28.51	36.55
5	153585	28.61	36.55
5	154142	28.71	36.55
5	154699	28.81	36.55
5	155256	28.91	36.55
5	155821	29.01	36.55
5	156378	29.11	36.55
5	156935	29.21	36.55
5	157492	29.31	36.55
5	158049	29.41	36.55
5	158606	29.51	36.55
5	159163	29.61	36.55
5	159720	29.71	36.55
5	160277	29.81	36.55
5	160834	29.91	36.55
5	161399	30.01	36.55
5	161956	30.11	36.55
5	162513	30.21	36.55
5	163070	30.31	36.55
5	163627	30.41	36.55
5	164184	30.51	36.55
5	164741	30.61	36.55
5	165298	30.71	36.55
5	165855	30.81	36.55
5	166412	30.91	36.55
5	166977	31.01	36.55
5	167534	31.11	36.55
5	168091	31.21	36.55
5	168648	31.31	36.55
5	169205	31.41	36.55
5	169762	31.51	36.55
5	170319	31.61	36.55
5	170876	31.71	36.55
5	171433	31.81	36.55
5	171990	31.91	36.55
5	172555	32.01	36.55
5	173112	32.11	36.55
5	173669	32.21	36.55
5	174226	32.31	36.55
5	174783	32.41	36.55
5	175340	32.51	36.55
5	175897	32.61	36.55
5	176454	32.71	36.55
5	177011	32.81	36.55
5	177568	32.91	36.55
5	178133	33.01	36.55
5	178690	33.11	36.55
5	179247	33.21	36.55
5	179804	33.31	36.55
5	180361	33.41	36.55
5	180918	33.51	36.55
5	181475	33.61	36.55
5	182032	33.71	36.55
5	182589	33.81	36.55
5	183146	33.91	36.55
5	183711	34.01	36.55
5	184268	34.11	36.55
5	184825	34.21	36.55
5	185382	34.31	36.55
5	185939	34.41	36.55
5	186496	34.51	36.55
5	187053	34.61	36.55
5	187610	34.71	36.55
5	188167	34.81	36.55
5	188724	34.91	36.55
5	189289	35.01	36.55
5	189846	35.11	36.55
5	190403	35.21	36.55
5	190960	35.31	36.55
5	191517	35.41	36.55
5	192074	35.51	36.55
5	192631	35.61	36.55
5	193188	35.71	36.55
5	193745	35.81	36.55
5	194302	35.91	36.55
5	194867	36.01	36.55
5	195424	36.11	36.55
5	195981	36.21	36.55
5	196538	36.31	36.55
5	197095	36.41	36.55
5	197652	36.51	36.55
5	198209	36.61	36.55
5	198766	36.71	36.55
5	199323	36.81	36.55
5	199880	36.91	36.55
5	200445	37.01	36.55
5	201002	37.11	36.55
5	201559	37.21	36.55
5	202116	37.31	36.55
5	202673	37.41	36.55
5	203230	37.51	36.55
5	203787	37.61	36.55
5	204344	37.71	36.55
5	204901	37.81	36.55
5	205458	37.91	36.55
5	206023	38.01	36.55
5	206580	38.11	36.55
5	207137	38.21	36.55
5	207694	38.31	36.55
5	208251	38.41	36.55
5	208808	38.51	36.55
5	209365	38.61	36.55
5	209922	38.71	36.55
5	210479	38.81	36.55
5	211036	38.91	36.55
5	211601	39.01	36.55
5	212158	39.11	36.55
5	212715	39.21	36.55
5	213272	39.31	36.55
5	213829	39.41	36.55
5	214386	39.51	36.55
5	214943	39.61	36.55
5	215500	39.71	36.55
5	216057	39.81	36.55
5	216614	39.91	36.55
5	217179	40.01	36.55
5	217736	40.11	36.55
5	218293	40.21	36.55
5	218850	40.31	36.55
5	219407	40.41	36.55
5	219964	40.51	36.55
5	220521	40.61	36.55
5	221078	40.71	36.55
5	221635	40.81	36.55
5	222192	40.91	36.55
5	222757	41.01	36.55
5	223314	41.11	36.55
5	223871	41.21	36.55
5	224428	41.31	36.55
5	224985	41.41	36.55
5	225542	41.51	36.55
5	226099	41.61	36.55
5	226656	41.71	36.55
5	227213	41.81	36.55
5	227770	41.91	36.55
5	228335	42.01	36.55
5	228892	42.11	36.55
5	229449	42.21	36.55
5	230006	42.31	36.55
5	230563	42.41	36.55
5	231120	42.51	36.55
5	231677	42.61	36.55
5	232234	42.71	36.55
5	232791	42.81	36.55
5	233348	42.91	36.55
5	233913	43.01	36.55
5	234470	43.11	36.55
5	235027	43.21	36.55
5	235584	43.31	36.55
5	236141	43.41	36.55
5	236698	43.51	36.55
5	237255	43.61	36.55
5	237812	43.71	36.55
5	238369	43.81	36.55
5	238926	43.91	36.55
5	239491	44.01	36.55
5	240048	44.11	36.55
5	240605	44.21	36.55
5	241162	44.31	36.55
5	241719	44.41	36.55
5	242276	44.51	36.55
5	242833	44.61	36.55
5	243390	44.71	36.55
5	243947	44.81	36.55
5	244504	44.91	36.55
5	245069	45.01	36.55
5	245626	45.11	36.55
5	246183	45.21	36.55
5	246740	45.31	36.55
5	247297	45.41	36.55
5	247854	45.51	36.55
5	248411	45.61	36.55
5	248968	45.71	36.55
5	249525	45.81	36.55
5	250082	45.91	36.55
5	250647	46.01	36.55
5	251204	46.11	36.55
5	251761	46.21	36.55
5	252318	46.31	36.55
5	252875	46.41	36.55
5	253432	46.51	36.55
5	253989	46.61	36.55
5	254546	46.71	36.55
5	255103	46.81	36.55
5	255660	46.91	36.55
5	256225	47.01	36.55
5	256782	47.11	36.55
5	257339	47.21	36.55
5	257896	47.31	36.55
5	258453	47.41	36.55
5	259010	47.51	36.55
5	259567	47.61	36.55
5	260124	47.71	36.55
5	260681	47.81	36.55
5	261238	47.91	36.55
5	261803	48.01	36.55
5	262360	48.11	36.55
5	262917	48.21	36.55
5	263474	48.31	36.55
5	264031	48.41	36.55
5	264588	48.51	36.55
5	265145	48.61	36.55
5	265702	48.71	36.55
5	266259	48.81	36.55
5	266816	48.91	36.55
5	267381	49.01	36.55
5	267938	49.11	36.55
5	268495	49.21	36.55
5	269052	49.31	36.55
5	269609	49.41	36.55
5	270166	49.51	36.55
5	270723	49.61	36.55
5	271280	49.71	36.55
5	271837	49.81	36.55
5	272394	49.91	36.55
5	272959	50.01	36.55
5	273516	50.11	36.55
5	274073	50.21	36.55
5	274630	50.31	36.55
5	275187	50.41	36.55
5	275744	50.51	36.55
5	276301	50.61	36.55
5	276858	50.71	36.55
5	277415	50.81	36.55
5	277972	50.91	36.55
5	278537	51.01	36.55
5	279094	51.11	36.55
5	279651	51.21	36.55
5	280208	51.31	36.55
5	280765	51.41	36.55
5	281322	51.51	36.55
5	281879	51.61	36.55
5	282436	51.71	36.55
5	282993	51.81	36.55
5	283550	51.91	36.55
5	284115	52.01	36.55
5	284672	52.11	36.55
5	285229	52.21	36.55
5	285786	52.31	36.55
5	286343	52.41	36.55
5	286900	52.51	36.55
5	287457	52.61	36.55
5	288014	52.71	36.55
5	288571	52.81	36.55
5	289128	52.91	36.55
5	289693	53.01	36.55
5	290250	53.11	36.55
5	290807	53.21	36.55
5	291364	53.31	36.55
5	291921	53.41	36.55
5	292478	53.51	36.55
5	293035	53.61	36.55
5	293592	53.71	36.55
5	294149	53.81	36.55
5	294706	53.91	36.55
5	295271	54.01	36.55
5	295828	54.11	36.55
5	296385	54.21	36.55
5	296942	54.31	36.55
5	297499	54.41	36.55
5	298056	54.51	36.55
5	298613	54.61	36.55
5	299170	54.71	36.55
5	299727	54.81	36.55
5	300284	54.91	36.55
5	300849	55.01	36.55
5	301406	55.11	36.55
5	301963	55.21	36.55
5	302520	55.31	36.55
5	303077	55.41	36.55
5	303634	55.51	36.55
5	304191	55.61	36.55
5	304748	55.71	36.55
5	305305	55.81	36.55
5	305862	55.91	36.55
5	306427	56.01	36.55
5	306984	56.11	36.55
5	307541	56.21	36.55
5	308098	56.31	36.55
5	308655	56.41	36.55
5	309212	56.51	36.55
5	309769	56.61	36.55
5	310326	56.71	36.55
5	310883	56.81	36.55
5	311440	56.91	36.55
5	312005	57.01	36.55
5	312562	57.11	36.55
5	313119	57.21	36.55
5	313676	57.31	36.55
5	314233	57.41	36.55
5	314790	57.51	36.55
5	315347	57.61	36.55
5	315904	57.71	36.55
5	316461	57.81	36.55
5	317018	57.91	36.55
5	317583	58.01	36.55
5	318140	58.11	36.55
5	318697	58.21	36.55
5	319254	58.31	36.55
5	319811	58.41	36.55
5	320368	58.51	36.55
5	320925	58.61	36.55
5	321482	58.71	36.55
5	322039	58.81	36.55
5	322596	58.91	36.55
5	323161	59.01	36.55
5	323718	59.11	36.55
5	324275	59.21	36.55
5	324832	59.31	36.55
5	325389	59.41	36.55
5	325946	59.51	36.55
5	326503	59.61	36.55
5	327060	59.71	36.55
5	327617	59.81	36.55
5	328174	59.91	36.55
4	232	1.11	223.10652999905
4	788	1.21	225.32875213826
4	1344	1.31	227.55097428019
4	1900	1.41	229.77319642578
4	2456	1.51	231.99541857576
4	3012	1.61	234.21764073063
4	3568	1.71	236.43986289073
4	4124	1.81	238.66208505622
4	4680	1.91	240.88430722715
4	5244	2.01	243.10652940347
4	5800	2.11	245.32875158504
4	6356	2.21	247.55097377163
4	6912	2.31	249.77319596299
4	7468	2.41	251.99541815881
4	8024	2.51	254.21764035877
4	8580	2.61	256.43986256252
4	9136	2.71	258.66208476971
4	9692	2.81	260.88430697999
4	10248	2.91	263.10652919302
4	10812	3.01	265.32875140848
4	11368	3.11	267.55097362604
4	11924	3.21	269.77319584542
4	12480	3.31	271.99541806633
4	13036	3.41	274.21764028853
4	13592	3.51	276.43986251178
4	14148	3.61	278.66208473589
4	14704	3.71	280.88430696065
4	15260	3.81	283.10652918591
4	15816	3.91	285.32875141152
4	16380	4.01	287.55097363736
4	16936	4.11	289.77319586332
4	17492	4.21	291.99541808932
4	18048	4.31	294.21764031528
4	18604	4.41	296.43986254114
4	19160	4.51	298.66208476685
4	19716	4.61	300.88430699237
4	20272	4.71	303.10652921769
4	20828	4.81	305.32875144278
4	21384	4.91	307.55097366763
4	21949	5.01	309.77319589224
4	22506	5.11	311.99541948189
4	23063	5.21	314.21786957302
4	23620	5.31	316.44131975729
4	24177	5.41	318.66699466238
4	24734	5.51	320.89644427202
4	25291	5.61	323.13140344864
4	25848	5.71	325.3735576768
4	26405	5.81	327.62430899697
4	26962	5.91	329.88480770244
4	27527	6.01	332.15599743439
4	28084	6.11	334.43865230722
4	28641	6.21	336.73340736439
4	29198	6.31	339.04078356271
4	29755	6.41	341.36120826822
4	30312	6.51	343.69503203825
4	30869	6.61	346.04251262271
4	31426	6.71	348.40360358866
4	31983	6.81	350.77777841956
4	32540	6.91	353.16404833907
4	33105	7.01	355.5609986344
4	33662	7.11	357.96683219104
4	34219	7.21	360.37941908305
4	34776	7.31	362.79635105108
4	35333	7.41	365.21500015817
4	35890	7.51	367.63265347709
4	36447	7.61	370.04681320147
4	37004	7.71	372.45541218601
4	37561	7.81	374.85675465158
4	38118	7.91	377.24944946865
4	38683	8.01	379.63235542647
4	39240	8.11	382.00453633474
4	39797	8.21	384.36522419134
4	40354	8.31	386.71378896706
4	40911	8.41	389.04971381847
4	41468	8.51	391.37257475396
4	42025	8.61	393.68202395275
4	42582	8.71	395.97777608062
4	43139	8.81	398.25959706416
4	43696	8.91	400.52729488162
4	44261	9.01	402.7807120083
4	44818	9.11	405.01971921908
4	45375	9.21	407.24421050434
4	45932	9.31	409.45409889929
4	46489	9.41	411.64931306248
4	47046	9.51	413.82979673192
4	47603	9.61	415.99574520797
4	48160	9.71	418.14801981196
4	48717	9.81	420.28811230629
4	49274	9.91	422.41803980401
4	49839	10.01	424.54024014461
4	50396	10.11	426.65746904494
4	50953	10.21	428.77269926426
4	51510	10.31	430.88885901648
4	52067	10.41	433.00846961075
4	52624	10.51	435.13360587293
4	53181	10.61	437.26596988289
4	53738	10.71	439.40695793895
4	54295	10.81	441.55771549207
4	54852	10.91	443.719182211
4	55417	11.01	445.8921289514
4	55974	11.11	448.07718808338
4	56531	11.21	450.27487837072
4	57088	11.31	452.48562538038
4	57645	11.41	454.7097782255
4	58202	11.51	456.94762330045
4	58759	11.61	459.19939554836
4	59316	11.71	461.46528770444
4	59873	11.81	463.74545787867
4	60430	11.91	466.04002097693
4	60995	12.01	468.34877196943
4	61552	12.11	470.6708655402
4	62109	12.21	473.00487258792
4	62666	12.31	475.34886722195
4	63223	12.41	477.70051555355
4	63780	12.51	480.0571649191
4	64337	12.61	482.41593311044
4	64894	12.71	484.7739313784
4	65451	12.81	487.12861394857
4	66008	12.91	489.47788171619
4	66573	13.01	491.82001268424
4	67130	13.11	494.1535942154
4	67687	13.21	496.47746745503
4	68244	13.31	498.79068173871
4	68801	13.41	501.0924571905
4	69358	13.51	503.38215404049
4	69915	13.61	505.65924745454
4	70472	13.71	507.92330688582
4	71029	13.81	510.17397913601
4	71586	13.91	512.41097445944
4	72151	14.01	514.63405516376
4	72708	14.11	516.84302625845
4	73265	14.21	519.03772778336
4	73822	14.31	521.21802851545
4	74379	14.41	523.38382158721
4	74936	14.51	525.53517353646
4	75493	14.61	527.67269966926
4	76050	14.71	529.79764372019
4	76607	14.81	531.91179150661
4	77164	14.91	534.01737651273
4	77729	15.01	536.11698534063
4	78286	15.11	538.2134639087
4	78843	15.21	540.30975509068
4	79400	15.31	542.40856803979
4	79957	15.41	544.5121444918
4	80514	15.51	546.62232345079
4	81071	15.61	548.74061354068
4	81628	15.71	550.8682523585
4	82185	15.81	553.0062551649
4	82742	15.91	555.1554548272
4	83307	16.01	557.31653458671
4	83864	16.11	559.49005493926
4	84421	16.21	561.67647568668
4	84978	16.31	563.87617402659
4	85535	16.41	566.08945939243
4	86092	16.51	568.31658562739
4	86649	16.61	570.55776097131
4	87206	16.71	572.81315625338
4	87763	16.81	575.08291161304
4	88320	16.91	577.36714099896
4	88885	17.01	579.66574790715
4	89442	17.11	581.97803396738
4	89999	17.21	584.30268551837
4	90556	17.31	586.63786326331
4	91113	17.41	588.98129469015
4	91670	17.51	591.3303667243
4	92227	17.61	593.68221789837
4	92784	17.71	596.03392256727
4	93341	17.81	598.38282846683
4	93898	17.91	600.72674362523
4	94463	18.01	603.0638698621
4	95020	18.11	605.39273204322
4	95577	18.21	607.71212004477
4	96134	18.31	610.0210411437
4	96691	18.41	612.31868096137
4	97248	18.51	614.60437142364
4	97805	18.61	616.87756447701
4	98362	18.71	619.13781052673
4	98919	18.81	621.38474074853
4	99476	18.91	623.61805257803
4	100041	19.01	625.83749780705
4	100598	19.11	628.04287281844
4	101155	19.21	630.23401057522
4	101712	19.31	632.41077404889
4	102269	19.41	634.57305174706
4	102826	19.51	636.72092883565
4	103383	19.61	638.85507285164
4	103940	19.71	640.97677152921
4	104497	19.81	643.08784432807
4	105054	19.91	645.19054927486
4	105619	20.01	647.28748960882
4	106176	20.11	649.38152100822
4	106733	20.21	651.47557546501
4	107290	20.31	653.57232627533
4	107847	20.41	655.67398381018
4	108404	20.51	657.78236134366
4	108961	20.61	659.89894639209
4	109518	20.71	662.02495923696
4	110075	20.81	664.16140093412
4	110632	20.91	666.30909269802
4	111197	21.01	668.46870821055
4	111754	21.11	670.64080012549
4	112311	21.21	672.82582181144
4	112868	21.31	675.02414518857
4	113425	21.41	677.23607536093
4	113982	21.51	679.46186262014
4	114539	21.61	681.70171229248
4	115096	21.71	683.95579281703
4	115653	21.81	686.22424237249
4	116210	21.91	688.50717336488
4	116775	22.01	690.80449650199
4	117332	22.11	693.11553282409
4	117889	22.21	695.43898497096
4	118446	22.31	697.77302611553
4	119003	22.41	700.11539284885
4	119560	22.51	702.46347827436
4	120117	22.61	704.81442455756
4	120674	22.71	707.16530205114
4	121231	22.81	709.51344525004
4	121788	22.91	711.85665059946
4	122353	23.01	714.19311041695
4	122910	23.11	716.52134177328
4	123467	23.21	718.84012814999
4	124024	23.31	721.14847157822
4	124581	23.41	723.44555337592
4	125138	23.51	725.73070193866
4	125695	23.61	728.00336631689
4	126252	23.71	730.26309454007
4	126809	23.81	732.50951583496
4	127366	23.91	734.74232603833
4	127931	24.01	736.96127563043
4	128488	24.11	739.16615991813
4	129045	24.21	741.35681098177
4	129602	24.31	743.53309106875
4	130159	24.41	745.69488811152
4	130716	24.51	747.84228987065
4	131273	24.61	749.97597106676
4	131830	24.71	752.09722548774
4	132387	24.81	754.20787722651
4	132944	24.91	756.31018769449
4	133509	25.01	758.40676243086
4	134066	25.11	760.50045846978
4	134623	25.21	762.59420632846
4	135180	25.31	764.69067440299
4	135737	25.41	766.79206877747
4	136294	25.51	768.90019920923
4	136851	25.61	771.01655032964
4	137408	25.71	773.1423400535
4	137965	25.81	775.27856749517
4	138522	25.91	777.42605227638
4	139087	26.01	779.58546677246
4	139644	26.11	781.75736256535
4	140201	26.21	783.94219214436
4	140758	26.31	786.14032670833
4	141315	26.41	788.35207076959
4	141872	26.51	790.57767413432
4	142429	26.61	792.81734173058
4	142986	26.71	795.07124167078
4	143543	26.81	797.33951186562
4	144100	26.91	799.62226450827
4	144665	27.01	801.91941126974
4	145222	27.11	804.23027585626
4	145779	27.21	806.55356315424
4	146336	27.31	808.88744805611
4	146893	27.41	811.22966840915
4	147450	27.51	813.57761817045
4	148007	27.61	815.92844000884
4	148564	27.71	818.27920372993
4	149121	27.81	820.6272420105
4	149678	27.91	822.97034970507
4	150243	28.01	825.30671782631
4	150800	28.11	827.6348623745
4	151357	28.21	829.95356595304
4	151914	28.31	832.26182987266
4	152471	28.41	834.55883486035
4	153028	28.51	836.84390882685
4	153585	28.61	839.11650042492
4	154142	28.71	841.37615735775
4	154699	28.81	843.62250858445
4	155256	28.91	845.85524972224
4	155821	29.01	848.07413107123
4	156378	29.11	850.27894779055
4	156935	29.21	852.46953183931
4	157492	29.31	854.64574536549
4	158049	29.41	856.80747622254
4	158606	29.51	858.9548125285
4	159163	29.61	861.08842999334
4	159720	29.71	863.20962323869
4	160277	29.81	865.32021699556
4	160834	29.91	867.42247314158
4	161399	30.01	869.51899753272
4	161956	30.11	871.61264738994
4	162513	30.21	873.70635302743
4	163070	30.31	875.80278216654
4	163627	30.41	877.90414030109
4	164184	30.51	880.01223670415
4	164741	30.61	882.12855560985
4	165298	30.71	884.2543146071
4	165855	30.81	886.39051254291
4	166412	30.91	888.53796881972
4	166977	31.01	890.69735563293
4	167534	31.11	892.86922441689
4	168091	31.21	895.05402753985
4	168648	31.31	897.25213610131
4	169205	31.41	899.46385453213
4	169762	31.51	901.68943257163
4	170319	31.61	903.92907509307
4	170876	31.71	906.18295016384
4	171433	31.81	908.45119565777
4	171990	31.91	910.73392373869
4	172555	32.01	913.03104621029
4	173112	32.11	915.34188714594
4	173669	32.21	917.66515174145
4	174226	32.31	919.99901512606
4	174783	32.41	922.34121532005
4	175340	32.51	924.68914639808
4	175897	32.61	927.03995109831
4	176454	32.71	929.39069915098
4	177011	32.81	931.73872298249
4	177568	32.91	934.08181722831
4	178133	33.01	936.41817272139
4	178690	33.11	938.7463053146
4	179247	33.21	941.0649974904
4	179804	33.31	943.3732504603
4	180361	33.41	945.67024486991
4	180918	33.51	947.95530856322
4	181475	33.61	950.22789013818
4	182032	33.71	952.48753725309
4	182589	33.81	954.73387883018
4	183146	33.91	956.96661045643
4	183711	34.01	959.18548240715
4	184268	34.11	961.39028982112
4	184825	34.21	963.58086464077
4	185382	34.31	965.75706900036
4	185939	34.41	967.91879074247
4	186496	34.51	970.06611803438
4	187053	34.61	972.19972672231
4	187610	34.71	974.3209115427
4	188167	34.81	976.43149731444
4	188724	34.91	978.53374597938
4	189289	35.01	980.6302634371
4	189846	35.11	982.72390693429
4	190403	35.21	984.81760675718
4	190960	35.31	986.9140305342
4	191517	35.41	989.01538367787
4	192074	35.51	991.12347539459
4	192631	35.61	993.23978986375
4	193188	35.71	995.36554462941
4	193745	35.81	997.50173850174
4	194302	35.91	999.64919085299
4	194867	36.01	1001.8085738538
4	195424	36.11	1003.9804389182
4	195981	36.21	1006.1652383976
4	196538	36.31	1008.3633433781
4	197095	36.41	1010.5750582792
4	197652	36.51	1012.8006328309
4	198209	36.61	1015.0402718991
4	198766	36.71	1017.2941435449
4	199323	36.81	1019.5623856371
4	199880	36.91	1021.8451103355
4	200445	37.01	1024.1422294619
4	201002	37.11	1026.4530671404
4	201559	37.21	1028.7763286094
4	202116	37.31	1031.1101890307
4	202673	37.41	1033.4523864485
4	203230	37.51	1035.8003149535
4	203787	37.61	1038.1511172935
4	204344	37.71	1040.5018631883
4	204901	37.81	1042.8498850299
4	205458	37.91	1045.1929774236
4	206023	38.01	1047.5293311776
4	206580	38.11	1049.8574621244
4	207137	38.21	1052.1761527298
4	207694	38.31	1054.4844041918
4	208251	38.41	1056.7813971446
4	208808	38.51	1059.0664594231
4	209365	38.61	1061.3390396177
4	209922	38.71	1063.5986853805
4	210479	38.81	1065.8450256287
4	211036	38.91	1068.077755945
4	211601	39.01	1070.2966266014
4	212158	39.11	1072.5014327339
4	212715	39.21	1074.6920062825
4	213272	39.31	1076.8682093797
4	213829	39.41	1079.0299298666
4	214386	39.51	1081.1772559171
4	214943	39.61	1083.3108633963
4	215500	39.71	1085.4320470564
4	216057	39.81	1087.5426317284
4	216614	39.91	1089.6448793631
4	217179	40.01	1091.741395866
4	217736	40.11	1093.8350384873
4	218293	40.21	1095.9287375094
4	218850	40.31	1098.025160548
4	219407	40.41	1100.1265130043
4	219964	40.51	1102.2346040756
4	220521	40.61	1104.3509179338
4	221078	40.71	1106.4766721167
4	221635	40.81	1108.6128654294
4	222192	40.91	1110.76031724
4	222757	41.01	1112.9196997158
4	223314	41.11	1115.0915642679
4	223871	41.21	1117.2763632456
4	224428	41.31	1119.4744677329
4	224985	41.41	1121.6861821479
4	225542	41.51	1123.9117562193
4	226099	41.61	1126.1513948119
4	226656	41.71	1128.4052659861
4	227213	41.81	1130.6735076098
4	227770	41.91	1132.9562318423
4	228335	42.01	1135.2533505081
4	228892	42.11	1137.564187738
4	229449	42.21	1139.8874487764
4	230006	42.31	1142.2213087896
4	230563	42.41	1144.563505825
4	231120	42.51	1146.9114339757
4	231677	42.61	1149.2622359906
4	232234	42.71	1151.6129815883
4	232791	42.81	1153.9610031559
4	233348	42.91	1156.3040952945
4	233913	43.01	1158.640448809
4	234470	43.11	1160.968579529
4	235027	43.21	1163.2872699182
4	235584	43.31	1165.5955211725
4	236141	43.41	1167.8925139247
4	236698	43.51	1170.1775760083
4	237255	43.61	1172.4501560128
4	237812	43.71	1174.7098015894
4	238369	43.81	1176.9561416546
4	238926	43.91	1179.1888717905
4	239491	44.01	1181.4077422687
4	240048	44.11	1183.6125482247
4	240605	44.21	1185.8031215983
4	241162	44.31	1187.9793245216
4	241719	44.41	1190.1410448355
4	242276	44.51	1192.2883707151
4	242833	44.61	1194.4219780278
4	243390	44.71	1196.5431615282
4	243947	44.81	1198.6537460488
4	244504	44.91	1200.7559935415
4	245069	45.01	1202.8525099129
4	245626	45.11	1204.9461524136
4	246183	45.21	1207.0398513254
4	246740	45.31	1209.1362742623
4	247297	45.41	1211.237626624
4	247854	45.51	1213.3457176064
4	248411	45.61	1215.4620313804
4	248968	45.71	1217.5877854831
4	249525	45.81	1219.7239787187
4	250082	45.91	1221.8714304549
4	250647	46.01	1224.0308128584
4	251204	46.11	1226.2026773399
4	251761	46.21	1228.3874762485
4	252318	46.31	1230.5855806679
4	252875	46.41	1232.7972950159
4	253432	46.51	1235.0228690212
4	253989	46.61	1237.2625075483
4	254546	46.71	1239.5163786575
4	255103	46.81	1241.7846202167
4	255660	46.91	1244.0673443851
4	256225	47.01	1246.3644629874
4	256782	47.11	1248.6753001556
4	257339	47.21	1250.9985611347
4	257896	47.31	1253.3324210917
4	258453	47.41	1255.6746180744
4	259010	47.51	1258.0225461763
4	259567	47.61	1260.3733481465
4	260124	47.71	1262.7240937032
4	260681	47.81	1265.0721152331
4	261238	47.91	1267.4152073366
4	261803	48.01	1269.751560818
4	262360	48.11	1272.0796915069
4	262917	48.21	1274.3983818662
4	263474	48.31	1276.7066330919
4	264031	48.41	1279.0036258165
4	264588	48.51	1281.2886878733
4	265145	48.61	1283.5612678516
4	265702	48.71	1285.8209134026
4	266259	48.81	1288.0672534425
4	266816	48.91	1290.2999835536
4	267381	49.01	1292.5188540073
4	267938	49.11	1294.7236599389
4	268495	49.21	1296.9142332884
4	269052	49.31	1299.0904361878
4	269609	49.41	1301.2521564779
4	270166	49.51	1303.399482334
4	270723	49.61	1305.5330896238
4	271280	49.71	1307.6542731021
4	271837	49.81	1309.7648576018
4	272394	49.91	1311.8671050751
4	272959	50.01	1313.9636214283
4	273516	50.11	1316.0572639124
4	274073	50.21	1318.150962809
4	274630	50.31	1320.2473857319
4	275187	50.41	1322.3487380806
4	275744	50.51	1324.4568290508
4	276301	50.61	1326.5731428132
4	276858	50.71	1328.6988969048
4	277415	50.81	1330.8350901298
4	277972	50.91	1332.9825418557
4	278537	51.01	1335.1419242492
4	279094	51.11	1337.3137887211
4	279651	51.21	1339.4985876202
4	280208	51.31	1341.6966920302
4	280765	51.41	1343.908406369
4	281322	51.51	1346.1339803652
4	281879	51.61	1348.3736188833
4	282436	51.71	1350.6274899835
4	282993	51.81	1352.8957315338
4	283550	51.91	1355.1784556933
4	284115	52.01	1357.4755742869
4	284672	52.11	1359.7864114466
4	285229	52.21	1362.1096724175
4	285786	52.31	1364.4435323668
4	286343	52.41	1366.7857293423
4	286900	52.51	1369.1336574374
4	287457	52.61	1371.4844594014
4	288014	52.71	1373.8352049526
4	288571	52.81	1376.1832264772
4	289128	52.91	1378.5263185759
4	289693	53.01	1380.8626720528
4	290250	53.11	1383.1908027373
4	290807	53.21	1385.5094930926
4	291364	53.31	1387.8177443143
4	291921	53.41	1390.1147370351
4	292478	53.51	1392.3997990882
4	293035	53.61	1394.672379063
4	293592	53.71	1396.9320246104
4	294149	53.81	1399.1783646469
4	294706	53.91	1401.4110947545
4	295271	54.01	1403.6299652048
4	295828	54.11	1405.8347711331
4	296385	54.21	1408.0253444793
4	296942	54.31	1410.2015473754
4	297499	54.41	1412.3632676622
4	298056	54.51	1414.510593515
4	298613	54.61	1416.6442008016
4	299170	54.71	1418.7653842769
4	299727	54.81	1420.8759687738
4	300284	54.91	1422.9782162444
4	300849	55.01	1425.0747325951
4	301406	55.11	1427.1683750769
4	301963	55.21	1429.2620739715
4	302520	55.31	1431.3584968924
4	303077	55.41	1433.4598492392
4	303634	55.51	1435.5679402078
4	304191	55.61	1437.6842539686
4	304748	55.71	1439.8100080587
4	305305	55.81	1441.9462012822
4	305862	55.91	1444.0936530068
4	306427	56.01	1446.2530353989
4	306984	56.11	1448.4248998694
4	307541	56.21	1450.6096987672
4	308098	56.31	1452.8078031759
4	308655	56.41	1455.0195175134
4	309212	56.51	1457.2450915084
4	309769	56.61	1459.4847300252
4	310326	56.71	1461.7386011242
4	310883	56.81	1464.0068426733
4	311440	56.91	1466.2895668316
4	312005	57.01	1468.586685424
4	312562	57.11	1470.8975225825
4	313119	57.21	1473.2207835523
4	313676	57.31	1475.5546435005
4	314233	57.41	1477.896840475
4	314790	57.51	1480.2447685692
4	315347	57.61	1482.5955705324
4	315904	57.71	1484.9463160827
4	316461	57.81	1487.2943376066
4	317018	57.91	1489.6374297046
4	317583	58.01	1491.9737831809
4	318140	58.11	1494.3019138649
4	318697	58.21	1496.6206042196
4	319254	58.31	1498.9288554408
4	319811	58.41	1501.225848161
4	320368	58.51	1503.5109102136
4	320925	58.61	1505.7834901879
4	321482	58.71	1508.0431357348
4	322039	58.81	1510.2894757708
4	322596	58.91	1512.522205878
4	323161	59.01	1514.7410763278
4	323718	59.11	1516.9458822556
4	324275	59.21	1519.1364556014
4	324832	59.31	1521.312658497
4	325389	59.41	1523.4743787834
4	325946	59.51	1525.6217046357
4	326503	59.61	1527.755311922
4	327060	59.71	1529.8764953968
4	327617	59.81	1531.9870798933
4	328174	59.91	1534.0893273635
3	232	1.11	22.222221380388
3	788	1.21	22.222221400033
3	1344	1.31	22.222221430895
3	1900	1.41	22.222221470405
3	2456	1.51	22.222221516302
3	3012	1.61	22.222221566615
3	3568	1.71	22.222221619648
3	4124	1.81	22.222221673961
3	4680	1.91	22.22222172835
3	5244	2.01	22.222221781827
3	5800	2.11	22.222221833594
3	6356	2.21	22.222221883033
3	6912	2.31	22.222221929673
3	7468	2.41	22.222221973181
3	8024	2.51	22.22222201334
3	8580	2.61	22.22222205003
3	9136	2.71	22.222222083218
3	9692	2.81	22.222222112937
3	10248	2.91	22.222222139276
3	10812	3.01	22.222222162372
3	11368	3.11	22.222222182391
3	11924	3.21	22.222222199529
3	12480	3.31	22.222222213995
3	13036	3.41	22.222222226009
3	13592	3.51	22.222222235797
3	14148	3.61	22.222222243584
3	14704	3.71	22.222222249588
3	15260	3.81	22.222222254023
3	15816	3.91	22.22222225709
3	16380	4.01	22.222222258982
3	16936	4.11	22.222222259874
3	17492	4.21	22.22222225993
3	18048	4.31	22.2222222593
3	18604	4.41	22.222222258118
3	19160	4.51	22.222222256505
3	19716	4.61	22.222222254566
3	20272	4.71	22.222222252396
3	20828	4.81	22.222222250075
3	21384	4.91	22.222222247671
3	21949	5.01	22.222222245242
3	22506	5.11	22.222290507125
3	23063	5.21	22.226504077641
3	23620	5.31	22.240220338524
3	24177	5.41	22.267500757653
3	24734	5.51	22.311166408855
3	25291	5.61	22.372508246834
3	25848	5.71	22.449772173803
3	26405	5.81	22.540103259952
3	26962	5.91	22.641153967919
3	27527	6.01	22.750998499419
3	28084	6.11	22.868057029105
3	28641	6.21	22.991033549938
3	29198	6.31	23.118864884746
3	29755	6.41	23.250678857945
3	30312	6.51	23.385758398132
3	30869	6.61	23.522833432233
3	31426	6.71	23.657796347927
3	31983	6.81	23.785829581157
3	32540	6.91	23.902426182221
3	33105	7.01	24.003469344582
3	33662	7.11	24.085300499944
3	34219	7.21	24.144775797594
3	34776	7.31	24.179310887614
3	35333	7.41	24.18693697487
3	35890	7.51	24.167648012512
3	36447	7.61	24.124876590017
3	37004	7.71	24.062841371271
3	37561	7.81	23.985003130021
3	38118	7.91	23.894200906128
3	38683	8.01	23.792763701114
3	39240	8.11	23.682602107418
3	39797	8.21	23.565283476299
3	40354	8.31	23.442093581698
3	40911	8.41	23.314087206082
3	41468	8.51	23.182129638453
3	42025	8.61	23.046930717174
3	42582	8.71	22.90907275694
3	43139	8.81	22.769033458618
3	43696	8.91	22.627204703306
3	44261	9.01	22.483907969993
3	44818	9.11	22.339406983423
3	45375	9.21	22.193918089742
3	45932	9.31	22.047618768141
3	46489	9.41	21.900654613374
3	47046	9.51	21.753242751854
3	47603	9.61	21.609901385757
3	48160	9.71	21.477532883517
3	48717	9.81	21.362073971413
3	49274	9.91	21.268410541013
3	49839	10.01	21.200386497448
3	50396	10.11	21.160826131916
3	50953	10.21	21.151517345739
3	51510	10.31	21.170320646314
3	52067	10.41	21.212693656992
3	52624	10.51	21.274402039281
3	53181	10.61	21.351972160799
3	53738	10.71	21.442554433126
3	54295	10.81	21.543811201247
3	54852	10.91	21.653824773844
3	55417	11.01	21.771021976106
3	55974	11.11	21.894112256751
3	56531	11.21	22.022036914228
3	57088	11.31	22.15392744452
3	57645	11.41	22.289071371833
3	58202	11.51	22.426884217862
3	58759	11.61	22.566886506821
3	59316	11.71	22.708684901566
3	59873	11.81	22.851956728639
3	60430	11.91	22.996030636022
3	60995	12.01	23.135871741664
3	61552	12.11	23.265091831195
3	62109	12.21	23.37815370659
3	62666	12.31	23.470398479481
3	63223	12.41	23.538058615042
3	63780	12.51	23.578257676094
3	64337	12.61	23.589039899577
3	64894	12.71	23.571771817424
3	65451	12.81	23.530658220569
3	66008	12.91	23.469982996268
3	66573	13.01	23.39326042415
3	67130	13.11	23.303373437532
3	67687	13.21	23.20268704586
3	68244	13.31	23.093141380613
3	68801	13.41	22.97632802535
3	69358	13.51	22.853552632938
3	69915	13.61	22.725886293488
3	70472	13.71	22.594207673951
3	71029	13.81	22.459237587264
3	71586	13.91	22.321567351098
3	72151	14.01	22.181682051897
3	72708	14.11	22.039979629502
3	73265	14.21	21.896786533182
3	73822	14.31	21.752370565044
3	74379	14.41	21.606990468916
3	74936	14.51	21.46377531614
3	75493	14.61	21.329003640752
3	76050	14.71	21.208703411767
3	76607	14.81	21.107966374326
3	77164	14.91	21.030937646541
3	77729	15.01	20.980819133086
3	78286	15.11	20.959864153028
3	78843	15.21	20.968113302143
3	79400	15.31	21.001828232614
3	79957	15.41	21.056433973525
3	80514	15.51	21.128177455263
3	81071	15.61	21.213979853553
3	81628	15.71	21.311315460134
3	82185	15.81	21.418112314529
3	82742	15.91	21.532670687482
3	83307	16.01	21.65359620899
3	83864	16.11	21.779745009989
3	84421	16.21	21.910178719438
3	84978	16.31	22.04412754625
3	85535	16.41	22.180959993615
3	86092	16.51	22.320158014196
3	86649	16.61	22.461296628745
3	87206	16.71	22.604027206256
3	87763	16.81	22.748063747876
3	88320	16.91	22.893121062247
3	88885	17.01	23.035415892366
3	89442	17.11	23.168450652444
3	89999	17.21	23.28637522879
3	90556	17.31	23.384255235879
3	91113	17.41	23.458083279214
3	91670	17.51	23.504776599185
3	92227	17.61	23.522191087294
3	92784	17.71	23.510795234811
3	93341	17.81	23.474498911582
3	93898	17.91	23.417775529511
3	94463	18.01	23.344294844447
3	95020	18.11	23.257067334362
3	95577	18.21	23.158562639743
3	96134	18.31	23.050806725964
3	96691	18.41	22.935461590275
3	97248	18.51	22.813890649294
3	97805	18.61	22.687212379529
3	98362	18.71	22.556344321276
3	98919	18.81	22.422039177162
3	99476	18.91	22.284914425505
3	100041	19.01	22.145476613593
3	100598	19.11	22.004141286635
3	101155	19.21	21.861249336433
3	101712	19.31	21.717080413001
3	102269	19.41	21.571909863106
3	102826	19.51	21.429278340793
3	103383	19.61	21.295604178514
3	103940	19.71	21.176803340552
3	104497	19.81	21.077868481133
3	105054	19.91	21.002857998561
3	105619	20.01	20.954898781713
3	106176	20.11	20.936175392548
3	106733	20.21	20.946407816827
3	107290	20.31	20.981749723707
3	107847	20.41	21.03769015195
3	108404	20.51	21.110528542171
3	108961	20.61	21.197229146774
3	109518	20.71	21.295301595376
3	110075	20.81	21.402702916871
3	110632	20.91	21.517757163382
3	111197	21.01	21.639089473919
3	111754	21.11	21.765571983607
3	112311	21.21	21.896279450413
3	112868	21.31	22.030452853606
3	113425	21.41	22.167469531823
3	113982	21.51	22.306818685871
3	114539	21.61	22.448081282503
3	115096	21.71	22.590913568504
3	115653	21.81	22.735033546511
3	116210	21.91	22.880162447437
3	116775	22.01	23.022670267421
3	117332	22.11	23.156108357089
3	117889	22.21	23.274585173836
3	118446	22.31	23.373129675149
[...]
36	53982	10.754925976355	0.100052875791
36	54539	10.854913856185	0.09998787983
36	55096	10.954836740117	0.099922883932
36	55661	11.05487662822	0.100039888103
36	56218	11.154851520555	0.099974892335
36	56775	11.254865417182	0.100013896627
36	57332	11.354866318156	0.100000900974
36	57889	11.454854223531	0.099987905375
36	58446	11.554829133358	0.099974909827
36	59003	11.654921047687	0.100091914329
36	59560	11.754921966568	0.100000918881
36	60117	11.854922890046	0.100000923478
36	60674	11.954858818165	0.099935928119
36	61239	12.054833750969	0.099974932804
36	61796	12.15492568849	0.100091937521
36	62353	12.254848630748	0.099922942258
36	62910	12.354862577755	0.100013947007
36	63467	12.454876529498	0.100013951743
36	64024	12.554877485955	0.100000956457
36	64581	12.654878447084	0.100000961129
36	65138	12.754827412829	0.099948965745
36	65695	12.854828383123	0.100000970294
36	66252	12.954855357888	0.100026974765
36	66817	13.054908337045	0.100052979157
36	67374	13.15483132051	0.099922983465
36	67931	13.254845308197	0.100013987687
36	68488	13.354833300025	0.099987991828
36	69045	13.45483429591	0.100000995885
36	69602	13.554900295773	0.100065999863
36	70159	13.654888299536	0.099988003763
36	70716	13.754850307123	0.099962007587
36	71273	13.85491631846	0.100066011337
36	71830	13.954865333473	0.099949015013
36	72395	14.054879352094	0.100014018621
36	72952	14.154841374253	0.099962022159
36	73509	14.254894399879	0.100053025626
36	74066	14.354921428904	0.100027029025
36	74623	14.454870461262	0.099949032358
36	75180	14.554923496883	0.100053035621
36	75737	14.654924535708	0.100001038825
36	76294	14.754847577685	0.099923041977
36	76851	14.854900622774	0.100053045089
36	77408	14.954836670951	0.099936048177
36	77973	15.054850722207	0.100014051256
36	78530	15.154877776548	0.100027054341
36	79087	15.254852834001	0.099975057453
36	79644	15.354853894599	0.100001060598
36	80201	15.454841958386	0.099988063787
36	80758	15.55492102541	0.100079067024
36	81315	15.654831095724	0.099910070314
36	81872	15.754858169386	0.100027073662
36	82429	15.854898246444	0.100040077058
36	82986	15.954860326952	0.099962080508
36	83551	16.054887410956	0.100027084004
36	84108	16.154875498505	0.099988087549
36	84665	16.254928589643	0.100053091138
36	85222	16.354890684412	0.099962094769
36	85779	16.45491778285	0.100027098438
36	86336	16.554892884995	0.099975102145
36	86893	16.654919990885	0.10002710589
36	87450	16.754908100551	0.099988109666
36	88007	16.854857214028	0.099949113477
36	88564	16.95489733135	0.100040117322
36	89129	17.054846452548	0.099949121198
36	89686	17.154899577644	0.100053125096
36	90243	17.254874706654	0.09997512901
36	90800	17.354888839577	0.100014132923
36	91357	17.454915976398	0.100027136821
36	91914	17.554865117084	0.099949140686
36	92471	17.65486626159	0.100001144506
36	93028	17.754854409851	0.099988148261
36	93585	17.854894561793	0.100040151942
36	94142	17.954830717331	0.099936155538
36	94707	18.054831876373	0.100001159042
36	95264	18.154885038829	0.100053162456
36	95821	18.254847204605	0.099962165776
36	96378	18.354926373607	0.100079169002
36	96935	18.454901545746	0.099975172139
36	97492	18.554863720929	0.099962175183
36	98049	18.65487789907	0.100014178141
36	98606	18.754840080083	0.099962181013
36	99163	18.854906263887	0.100066183804
36	99720	18.9548424504	0.099936186513
36	100285	19.054895639547	0.100053189147
36	100842	19.154844831244	0.099949191697
36	101399	19.254846025417	0.100001194173
36	101956	19.354834221992	0.099988196575
36	102513	19.454874420891	0.100040198899
36	103070	19.554836622041	0.09996220115
36	103627	19.654902825375	0.100066203334
36	104184	19.754865030837	0.099962205462
36	104741	19.854866238381	0.100001207544
36	105298	19.954906447979	0.100040209598
36	105863	20.054855659619	0.09994921164
36	106420	20.154882873303	0.100027213684
36	106977	20.25485808905	0.099975215747
36	107534	20.354833306892	0.099975217842
36	108091	20.454873526869	0.100040219977
36	108648	20.554848749029	0.09997522216
36	109205	20.654888973418	0.100040224389
36	109762	20.754838200086	0.099949226668
36	110319	20.854878429082	0.100040228996
36	110876	20.954853660455	0.099975231373
36	111441	21.054854894251	0.100001233796
36	111998	21.154895130513	0.100040236262
36	112555	21.254870369281	0.099975238768
36	113112	21.354858610594	0.099988241313
36	113669	21.454846854488	0.099988243894
36	114226	21.554887101001	0.100040246513
36	114783	21.654914350165	0.100027249164
36	115340	21.754889602013	0.099975251848
36	115897	21.854851856577	0.099962254564
36	116454	21.954853113888	0.100001257311
36	117019	22.054893373978	0.10004026009
36	117576	22.154829636869	0.099936262891
36	118133	22.254856902571	0.100027265702
36	118690	22.354858171087	0.100001268516
36	119247	22.454846442404	0.099988271317
36	119804	22.554847716488	0.100001274084
36	120361	22.654926993293	0.100079276805
36	120918	22.754850272759	0.099923279466
36	121475	22.854864554807	0.100014282048
36	122032	22.954878839353	0.100014284546
36	122597	23.054919126311	0.100040286958
36	123154	23.154894415589	0.099975289278
36	123711	23.254895707094	0.100001291505
36	124268	23.354832000733	0.099936293639
36	124825	23.454872296417	0.100040295684
36	125382	23.554886594058	0.100014297641
36	125939	23.654848893569	0.099962299511
36	126496	23.754889194868	0.100040301299
36	127053	23.854851497873	0.099962303005
36	127610	23.954852802508	0.100001304635
36	128175	24.054841108696	0.099988306188
36	128732	24.154920416361	0.100079307665
36	129289	24.254843725428	0.099923309067
36	129846	24.354845035821	0.100001310393
36	130403	24.454833347473	0.099988311652
36	130960	24.554834660311	0.100001312838
36	131517	24.654861974272	0.100027313961
36	132074	24.754928289303	0.100066315031
36	132631	24.854903605362	0.099975316059
36	133188	24.954839922423	0.099936317061
36	133753	25.054841240477	0.100001318054
36	134310	25.154894559533	0.100053319056
36	134867	25.254882879614	0.099988320081
36	135424	25.354884200756	0.100001321142
36	135981	25.454911523001	0.100027322245
36	136538	25.554873846403	0.099962323402
36	137095	25.654888171014	0.100014324611
36	137652	25.754863496886	0.099975325872
36	138209	25.854929824077	0.100066327191
36	138766	25.954866152633	0.099936328556
36	139331	26.054919482607	0.100053329974
36	139888	26.154894814049	0.099975331442
36	140445	26.254922147006	0.100027332957
36	141002	26.354858481519	0.099936334513
36	141559	26.454846817632	0.099988336113
36	142116	26.554835155383	0.099988337751
36	142673	26.654849494813	0.10001433943
36	143230	26.754902835959	0.100053341146
36	143787	26.854878178861	0.099975342902
36	144344	26.954879523553	0.100001344692
36	144909	27.054841870072	0.099962346519
36	145466	27.154869218447	0.100027348375
36	146023	27.254883568696	0.100014350249
36	146580	27.354871920827	0.099988352131
36	147137	27.454834274828	0.099962354001
36	147694	27.554926630676	0.100092355848
36	148251	27.654862988328	0.099936357652
36	148808	27.75491634773	0.100053359402
36	149365	27.854917708809	0.100001361079
36	149922	27.954919071491	0.100001362682
36	150487	28.054855435693	0.099936364202
36	151044	28.15484380133	0.099988365637
36	151601	28.254923168313	0.100079366983
36	152158	28.354885536559	0.099962368246
36	152715	28.454873905985	0.099988369426
36	153272	28.554849276505	0.09997537052
36	153829	28.654915648044	0.100066371539
36	154386	28.754917020523	0.100001372479
36	154943	28.854905393868	0.099988373345
36	155500	28.954906768007	0.100001374139
36	156065	29.05489514287	0.099988374863
36	156622	29.154831518387	0.099936375517
36	157179	29.254923894493	0.100092376106
36	157736	29.354873271117	0.099949376624
36	158293	29.454900648196	0.100027377079
36	158850	29.554889025665	0.099988377469
36	159407	29.654890403466	0.100001377801
36	159964	29.754891781554	0.100001378088
36	160521	29.854880159896	0.099988378342
36	161078	29.954842538471	0.099962378575
36	161643	30.054882917278	0.100040378807
36	162200	30.154910296329	0.100027379051
36	162757	30.254833675656	0.099923379327
36	163314	30.354835055299	0.100001379643
36	163871	30.454914435312	0.100079380013
36	164428	30.554889815751	0.099975380439
36	164985	30.654904196673	0.100014380922
36	165542	30.754879578144	0.099975381471
36	166099	30.85484196022	0.099962382076
36	166656	30.954843342961	0.100001382741
36	167221	31.054896726426	0.100053383465
36	167778	31.154885110667	0.099988384241
36	168335	31.254834495736	0.099949385069
36	168892	31.354874881686	0.10004038595
36	169449	31.454863268564	0.099988386878
36	170006	31.554890656417	0.100027387853
36	170563	31.65487904529	0.099988388873
36	171120	31.75484143523	0.09996238994
36	171677	31.854842826279	0.100001391049
36	172234	31.954870218481	0.100027392202
36	172799	32.054884611878	0.100014393397
36	173356	32.154925006504	0.100040394626
36	173913	32.254887402386	0.099962395882
36	174470	32.354862799536	0.09997539715
36	175027	32.454916197952	0.100053398416
36	175584	32.554891597611	0.099975399659
36	176141	32.654853998484	0.099962400873
36	176698	32.754829400519	0.099975402035
36	177255	32.854869803653	0.100040403134
36	177812	32.954897207816	0.100027404163
36	178377	33.054833612931	0.099936405115
36	178934	33.154848018917	0.100014405986
36	179491	33.25487542569	0.100027406773
36	180048	33.354928833165	0.100053407475
36	180605	33.454891241251	0.099962408086
36	181162	33.55482764986	0.099936408609
36	181719	33.6548550589	0.10002740904
36	182276	33.754895468281	0.100040409381
36	182833	33.85490987791	0.100014409629
36	183390	33.954924287689	0.100014409779
36	183955	34.054925697524	0.100001409835
36	184512	34.154901107316	0.099975409792
36	185069	34.254876516966	0.09997540965
36	185626	34.354903926371	0.100027409405
36	186183	34.454866335433	0.099962409062
36	186740	34.554906744048	0.100040408615
36	187297	34.654830152121	0.099923408073
36	187854	34.754831559566	0.100001407445
36	188411	34.854845966309	0.100014406743
36	188968	34.954912372292	0.100066405983
36	189533	35.054887777473	0.099975405181
36	190090	35.154876181836	0.099988404363
36	190647	35.254838585375	0.099962403539
36	191204	35.354839988107	0.100001402732
36	191761	35.454867390058	0.100027401951
36	192318	35.554920791269	0.100053401211
36	192875	35.65483119179	0.099910400521
36	193432	35.754910591678	0.100079399888
36	193989	35.854846990997	0.099936399319
36	194546	35.954874389816	0.100027398819
36	195111	36.054836788215	0.099962398399
36	195668	36.154903186266	0.100066398051
36	196225	36.254904584053	0.100001397787
36	196782	36.354827981661	0.099923397608
36	197339	36.454881379177	0.100053397516
36	197896	36.554882776691	0.100001397514
36	198453	36.65491017429	0.100027397599
36	199010	36.754911572068	0.100001397778
36	199567	36.854873970116	0.099962398048
36	200124	36.954927368531	0.100053398415
36	200689	37.054863767401	0.09993639887
36	201246	37.154930166814	0.100066399413
36	201803	37.254866566843	0.099936400029
36	202360	37.354893967551	0.100027400708
36	202917	37.454856368983	0.099962401432
36	203474	37.554857771167	0.100001402184
36	204031	37.654872174113	0.100014402946
36	204588	37.754925577806	0.100053403693
36	205145	37.854913982219	0.099988404413
36	205702	37.954915387311	0.100001405092
36	206267	38.05489079303	0.099975405719
36	206824	38.154866199313	0.099975406283
36	207381	38.254828606089	0.099962406776
36	207938	38.354843013281	0.100014407192
36	208495	38.45484442081	0.100001407529
36	209052	38.554845828588	0.100001407778
36	209609	38.65483423653	0.099988407942
36	210166	38.754874644542	0.100040408012
36	210723	38.854837052529	0.099962407987
36	211280	38.954838460396	0.100001407867
36	211845	39.054878868045	0.100040407649
36	212402	39.154841275378	0.099962407333
36	212959	39.254907682295	0.100066406917
36	213516	39.354870088696	0.099962406401
36	214073	39.454858494479	0.099988405783
36	214630	39.554885899547	0.100027405068
36	215187	39.654861303806	0.099975404259
36	215744	39.754875707175	0.100014403369
36	216301	39.854838109584	0.099962402409
36	216858	39.95489151098	0.100053401396
36	217423	40.054879911329	0.099988400349
36	217980	40.154829310616	0.099949399287
36	218537	40.254908708846	0.10007939823
36	219094	40.354871106038	0.099962397192
36	219651	40.454924502227	0.100053396189
36	220208	40.554847897458	0.099923395231
36	220765	40.654849291787	0.100001394329
36	221322	40.754876685274	0.100027393487
36	221879	40.854930077989	0.100053392715
36	222436	40.954918470005	0.099988392016
36	223001	41.0548418614	0.099923391395
36	223558	41.154843252253	0.100001390853
36	224115	41.254831642652	0.099988390399
36	224672	41.354833032677	0.100001390025
36	225229	41.454860422421	0.100027389744
36	225786	41.554926811973	0.100066389552
36	226343	41.654837201421	0.099910389448
36	226900	41.754903590861	0.10006638944
36	227457	41.854865980383	0.099962389522
36	228014	41.954919370081	0.100053389698
36	228579	42.054920760042	0.100001389961
36	229136	42.154883150358	0.099962390316
36	229693	42.254897541098	0.10001439074
36	230250	42.354885932327	0.099988391229
36	230807	42.454887324088	0.100001391761
36	231364	42.55490171641	0.100014392322
36	231921	42.654851109298	0.099949392888
36	232478	42.754891502743	0.100040393445
36	233035	42.854905896717	0.100014393974
36	233592	42.954842291176	0.099936394459
36	234157	43.054882686069	0.100040394893
36	234714	43.154858081336	0.099975395267
36	235271	43.254911476904	0.100053395568
36	235828	43.354860872699	0.099949395795
36	236385	43.454927268642	0.100066395943
36	236942	43.554863664645	0.099936396003
36	237499	43.654865060622	0.100001395977
36	238056	43.754905456481	0.100040395859
36	238613	43.854880852131	0.09997539565
36	239170	43.954908247476	0.100027395345
36	239735	44.054857642418	0.099949394942
36	240292	44.154924036858	0.10006639444
36	240849	44.254925430699	0.100001393841
36	241406	44.354835823842	0.099910393143
36	241963	44.454837216186	0.100001392344
36	242520	44.554864607632	0.100027391446
36	243077	44.654891998089	0.100027390457
36	243634	44.754893387475	0.100001389386
36	244191	44.854829775721	0.099936388246
36	244748	44.954870162774	0.100040387053
36	245313	45.0549105486	0.100040385826
36	245870	45.154924933184	0.100014384584
36	246427	45.254900316534	0.09997538335
36	246984	45.354927698665	0.100027382131
36	247541	45.454851079617	0.099923380952
36	248098	45.554878459431	0.100027379814
36	248655	45.654918838164	0.100040378733
36	249212	45.754868215879	0.099949377715
36	249769	45.854895592643	0.100027376764
36	250326	45.954844968529	0.099949375886
36	250891	46.054833343616	0.099988375087
36	251448	46.154886717984	0.100053374368
36	252005	46.254914091718	0.100027373734
36	252562	46.354850464903	0.099936373185
36	253119	46.45487783763	0.100027372727
36	253676	46.554840209985	0.099962372355
36	254233	46.65482858206	0.099988372075
36	254790	46.754907953946	0.100079371886
36	255347	46.854870325738	0.099962371792
36	255904	46.954832697528	0.09996237179
36	256469	47.054834069407	0.100001371879
36	257026	47.15492644146	0.100092372053
36	257583	47.254849813761	0.099923372301
36	258140	47.354877186375	0.100027372614
36	258697	47.454878559344	0.100001372969
36	259254	47.554879932699	0.100001373355
36	259811	47.654894306443	0.100014373744
36	260368	47.75488268057	0.099988374127
36	260925	47.854923055051	0.100040374481
36	261482	47.954846429841	0.09992337479
36	262047	48.05483480489	0.099988375049
36	262604	48.154849180137	0.100014375247
36	263161	48.254863555514	0.100014375377
36	263718	48.354851930944	0.09998837543
36	264275	48.454918306345	0.100066375401
36	264832	48.554828681635	0.09991037529
36	265389	48.654882056726	0.100053375091
36	265946	48.754909431529	0.100027374803
36	266503	48.854858805949	0.09994937442
36	267060	48.954847179891	0.099988373942
36	267625	49.05484855326	0.100001373369
36	268182	49.154862925958	0.100014372698
36	268739	49.254838297887	0.099975371929
36	269296	49.354917668947	0.10007937106
36	269853	49.45490603904	0.099988370093
36	270410	49.554842408064	0.099936369024
36	270967	49.654921775931	0.100079367867
36	271524	49.75488414256	0.099962366629
36	272081	49.854859507883	0.099975365323
36	272638	49.954925871845	0.100066363962
36	273203	50.054927234414	0.100001362569
36	273760	50.154889595575	0.099962361161
36	274317	50.254890955333	0.100001359758
36	274874	50.35482731371	0.099936358377
36	275431	50.454841670743	0.100014357033
36	275988	50.554895026476	0.100053355733
36	276545	50.654870380962	0.099975354486
36	277102	50.754897734265	0.100027353303
36	277659	50.854873086458	0.099975352193
36	278216	50.954848437611	0.099975351153
36	278781	51.054927787806	0.100079350195
36	279338	51.15485113712	0.099923349314
36	279895	51.254878485641	0.100027348521
36	280452	51.354905833455	0.100027347814
36	281009	51.454829180651	0.099923347196
36	281566	51.554830527319	0.100001346668
36	282123	51.65487087355	0.100040346231
36	282680	51.754833219438	0.099962345888
36	283237	51.854860565074	0.100027345636
36	283794	51.954913910555	0.100053345481
36	284359	52.054889255969	0.099975345414
36	284916	52.154929601406	0.100040345437
36	285473	52.254852946939	0.099923345533
36	286030	52.354828292631	0.099975345692
36	286587	52.454829638529	0.100001345898
36	287144	52.554882984662	0.100053346133
36	287701	52.654897331037	0.100014346375
36	288258	52.754872677646	0.099975346609
36	288815	52.854835024459	0.099962346813
36	289372	52.954836371437	0.100001346978
36	289937	53.054850718526	0.100014347089
36	290494	53.154930065669	0.100079347143
36	291051	53.254879412796	0.099949347127
36	291608	53.354828759833	0.099949347037
36	292165	53.454908106701	0.100079346868
36	292722	53.554844453315	0.099936346614
36	293279	53.65488479959	0.100040346275
36	293836	53.754925145435	0.100040345845
36	294393	53.854926490761	0.100001345326
36	294950	53.954914835469	0.099988344708
36	295515	54.054929179467	0.100014343998
36	296072	54.154930522656	0.100001343189
36	296629	54.25491886494	0.099988342284
36	297186	54.354907206223	0.099988341283
36	297743	54.454895546403	0.09998834018
36	298300	54.554909885384	0.100014338981
36	298857	54.654846223075	0.099936337691
36	299414	54.754899559397	0.100053336322
36	299971	54.85483589428	0.099936334883
36	300528	54.954915227676	0.100079333396
36	301093	55.054890559551	0.099975331875
36	301650	55.154826889888	0.099936330337
36	302207	55.254893218699	0.100066328811
36	302764	55.354920546003	0.100027327304
36	303321	55.454856871837	0.099936325834
36	303878	55.554910196247	0.10005332441
36	304435	55.654846519289	0.099936323042
36	304992	55.754925841031	0.100079321742
36	305549	55.854927161537	0.100001320506
36	306106	55.954915480887	0.09998831935
36	306671	56.054864799158	0.099949318271
36	307228	56.154827116432	0.099962317274
36	307785	56.254854432795	0.100027316363
36	308342	56.354907748337	0.100053315542
36	308899	56.454831063144	0.099923314807
36	309456	56.55487137731	0.100040314166
36	310013	56.654859690926	0.099988313616
36	310570	56.754861004086	0.10000131316
36	311127	56.854888316884	0.100027312798
36	311684	56.954915629416	0.100027312532
36	312249	57.054890941776	0.09997531236
36	312806	57.154827254047	0.099936312271
36	313363	57.25491956631	0.100092312263
36	313920	57.354868878623	0.099949312313
36	314477	57.454844191039	0.099975312416
36	315034	57.554845503585	0.100001312546
36	315591	57.654846816269	0.100001312684
36	316148	57.754835129082	0.099988312813
36	316705	57.854862442001	0.100027312919
36	317262	57.954889754982	0.100027312981
36	317827	58.054891067978	0.100001312996
36	318384	58.154827380927	0.099936312949
36	318941	58.254828693764	0.100001312837
36	319498	58.354882006415	0.100053312651
36	320055	58.4548963188	0.100014312385
36	320612	58.554832630837	0.099936312037
36	321169	58.654846942441	0.100014311604
36	321726	58.754900253521	0.10005331108
36	322283	58.854849563988	0.099949310467
36	322840	58.95491587375	0.100066309762
36	323405	59.054891182711	0.099975308961
36	323962	59.154853490775	0.099962308064
36	324519	59.254906797847	0.100053307072
36	325076	59.354908103828	0.100001305981
36	325633	59.454883408619	0.099975304791
36	326190	59.554845712127	0.099962303508
36	326747	59.65491201426	0.100066302133
36	327304	59.75492631494	0.10001430068
36	327861	59.854914614099	0.099988299159
