file 1107647 1501674118                                         
version 2
run SinusoidalJammingDetail-166-20170802-13:41:35-110760
attr CACCSpacing 20
attr attackAcc -30
attr attackPos 7
attr attackSpeed 150
attr attackStart 31.5
attr attacker 1
attr beaconInterval 0.1
attr configname SinusoidalJammingDetail
attr controller 1
attr datetime 20170802-13:41:35
attr experiment SinusoidalJammingDetail
attr fakeAcc "(1 == 4)"
attr fakePos "(1 == 2)"
attr fakeSpeed "(1 == 3)"
attr inifile omnetpp_166.ini
attr iterationvars "$leaderSpeed=50, $controller=1, $CACCSpacing=20, $sController=\"CACC\", $attacker=1, $attackStart=31.5, $attackSpeed=150, $attackPos=7, $attackAcc=-30, $0=20, $1=0, $nCars=8, $platoonSize=8, $nLanes=1, $beaconInterval=0.1, $priority=2, $packetSize=200, $ploegH=0.5, $leaderHeadway=1.2, $fakeSpeed=(1 == 3), $fakeAcc=(1 == 4), $fakePos=(1 == 2)"
attr iterationvarsf leaderSpeed=50,controller=1,CACCSpacing=20,sController=CACC,attacker=1,attackStart=31.5,attackSpeed=150,attackPos=7,attackAcc=-30,20,0,nCars=8,platoonSize=8,nLanes=1,beaconInterval=0.1,priority=2,packetSize=200,ploegH=0.5,leaderHeadway=1.2,fakeSpeed=(1_==_3),fakeAcc=(1_==_4),fakePos=(1_==_2)-
attr leaderHeadway 1.2
attr leaderSpeed 50
attr measurement "$leaderSpeed=50, $controller=1, $CACCSpacing=20, $sController=\"CACC\", $attacker=1, $attackStart=31.5, $attackSpeed=150, $attackPos=7, $attackAcc=-30, $0=20, $1=0, $nCars=8, $platoonSize=8, $nLanes=1, $beaconInterval=0.1, $priority=2, $packetSize=200, $ploegH=0.5, $leaderHeadway=1.2, $fakeSpeed=(1 == 3), $fakeAcc=(1 == 4), $fakePos=(1 == 2)"
attr nCars 8
attr nLanes 1
attr network scenario
attr packetSize 200
attr platoonSize 8
attr ploegH 0.5
attr priority 2
attr processid 110760
attr repetition 1
attr replication #1
attr resultdir results
attr runnumber 166
attr sController "\"CACC\""
attr seedset 1
param **.coreDebug false
param **.debug false
param **.headway 0.1s
param **.numberOfCars 8
param **.numberOfCarsPerPlatoon 8
param **.numberOfLanes 1
param **.numericController 1
param **.traffic.nCars 8
param **.traffic.nLanes 1
param **.traffic.platoonInsertDistance 20m
param **.traffic.platoonInsertHeadway 0s
param **.traffic.platoonInsertSpeed 50kmph
param **.traffic.platoonInsertTime "1 s"
param **.traffic.platoonLeaderHeadway 1.2s
param **.traffic.platoonSize 8
param **.traffic.platooningVType "\"vtypeauto\""
param **.traffic_type "\"PlatoonsTrafficManager\""
param *.**.nic.mac1609_4.bitrate 6Mbps
param *.**.nic.mac1609_4.txPower 100mW
param *.**.nic.mac1609_4.useServiceChannel false
param *.**.nic.phy80211p.analogueModels "xmldoc(\"config.xml\")"
param *.**.nic.phy80211p.decider "xmldoc(\"config.xml\")"
param *.**.nic.phy80211p.maxTXPower 100mW
param *.**.nic.phy80211p.sensitivity -94dBm
param *.**.nic.phy80211p.thermalNoise -95dBm
param *.**.nic.phy80211p.usePropagationDelay true
param *.**.nic.phy80211p.useThermalNoise true
param *.annotations.draw false
param *.connectionManager.alpha 2.0
param *.connectionManager.carrierFrequency "5.890e9 Hz"
param *.connectionManager.pMax 100mW
param *.connectionManager.sat -94dBm
param *.connectionManager.sendDirect true
param *.manager.autoShutdown true
param *.manager.commandLine "\"sumo --remote-port $port --seed $seed --configuration-file $configFile\""
param *.manager.configFile "\"./sumocfg/freeway.sumo.cfg\""
param *.manager.host "\"localhost\""
param *.manager.margin 25
param *.manager.moduleDisplayString "\"\""
param *.manager.moduleName "\"node\""
param *.manager.moduleType "\"Car\""
param *.manager.updateInterval 0.01s
param *.node[*].appl.attackStart 31.5s
param *.node[*].appl.attackerType 1
param *.node[*].appl.simulationDuration "60 s"
param *.node[*].appl_type "\"SimplePlatooningApp\""
param *.node[*].helper.nCars 8
param *.node[*].helper.nLanes 1
param *.node[*].helper.platoonSize 8
param *.node[*].helper_type "\"PositionHelper\""
param *.node[*].mobility.x 0
param *.node[*].mobility.y 0
param *.node[*].mobility.z 1.895
param *.node[*].prot.attackStart 31.5s
param *.node[*].prot.attackerType 1
param *.node[*].prot.attackingNode 3
param *.node[*].prot.beaconingInterval 0.1s
param *.node[*].prot.fakeAcc "(1 == 4)"
param *.node[*].prot.fakePos "(1 == 2)"
param *.node[*].prot.fakeSpeed "(1 == 3)"
param *.node[*].prot.maliciousAcc "-30 mpss"
param *.node[*].prot.maliciousSpeed 150kmph
param *.node[*].prot.packetSize 200
param *.node[*].prot.priority 2
param *.node[*].prot.shiftX "7 m"
param *.node[*].prot.useControllerAcceleration true
param *.node[*].protocol_type "\"SimplePlatooningBeaconing\""
param *.node[*].scenario.accHeadway 0.1s
param *.node[*].scenario.caccC1 0.5
param *.node[*].scenario.caccOmegaN "0.2 Hz"
param *.node[*].scenario.caccSpacing 20m
param *.node[*].scenario.caccXi 1
param *.node[*].scenario.controller "\"CACC\""
param *.node[*].scenario.engineTau "0.5 s"
param *.node[*].scenario.leaderHeadway 1.2s
param *.node[*].scenario.leaderOscillationFrequency "0.2 Hz"
param *.node[*].scenario.leaderSpeed 50kmph
param *.node[*].scenario.oscillationAmplitude "10 kmph"
param *.node[*].scenario.ploegH 0.5s
param *.node[*].scenario.ploegKd 0.7
param *.node[*].scenario.ploegKp 0.2
param *.node[*].scenario.startOscillating "5 s"
param *.node[*].scenario.useRealisticEngine false
param *.node[*].scenario_type "\"SinusoidalScenario\""
param *.node[*].unicast.packetLossRate 0
param *.obstacles.debug false
param *.playgroundSizeX 65000m
param *.playgroundSizeY 25000m
param *.playgroundSizeZ 50m
param *.world.use2D false
param *.world.useTorus false

vector 0  scenario.node[0].appl  distance  ETV
vector 1  scenario.node[0].appl  relativeSpeed  ETV
vector 2  scenario.node[0].appl  nodeId  ETV
vector 6  scenario.node[0].appl  acceleration  ETV
vector 7  scenario.node[0].appl  controllerAcceleration  ETV
vector 3  scenario.node[0].appl  speed  ETV
vector 4  scenario.node[0].appl  posx  ETV
vector 5  scenario.node[0].appl  posy  ETV
vector 22  scenario.node[1].appl  distance  ETV
vector 23  scenario.node[1].appl  relativeSpeed  ETV
vector 24  scenario.node[1].appl  nodeId  ETV
vector 28  scenario.node[1].appl  acceleration  ETV
vector 29  scenario.node[1].appl  controllerAcceleration  ETV
vector 25  scenario.node[1].appl  speed  ETV
vector 26  scenario.node[1].appl  posx  ETV
vector 27  scenario.node[1].appl  posy  ETV
vector 44  scenario.node[2].appl  distance  ETV
vector 45  scenario.node[2].appl  relativeSpeed  ETV
vector 46  scenario.node[2].appl  nodeId  ETV
vector 50  scenario.node[2].appl  acceleration  ETV
vector 51  scenario.node[2].appl  controllerAcceleration  ETV
vector 47  scenario.node[2].appl  speed  ETV
vector 48  scenario.node[2].appl  posx  ETV
vector 49  scenario.node[2].appl  posy  ETV
vector 66  scenario.node[3].appl  distance  ETV
vector 67  scenario.node[3].appl  relativeSpeed  ETV
vector 68  scenario.node[3].appl  nodeId  ETV
vector 72  scenario.node[3].appl  acceleration  ETV
vector 73  scenario.node[3].appl  controllerAcceleration  ETV
vector 69  scenario.node[3].appl  speed  ETV
vector 70  scenario.node[3].appl  posx  ETV
vector 71  scenario.node[3].appl  posy  ETV
vector 88  scenario.node[4].appl  distance  ETV
vector 89  scenario.node[4].appl  relativeSpeed  ETV
vector 90  scenario.node[4].appl  nodeId  ETV
vector 94  scenario.node[4].appl  acceleration  ETV
vector 95  scenario.node[4].appl  controllerAcceleration  ETV
vector 91  scenario.node[4].appl  speed  ETV
vector 92  scenario.node[4].appl  posx  ETV
vector 93  scenario.node[4].appl  posy  ETV
vector 110  scenario.node[5].appl  distance  ETV
vector 111  scenario.node[5].appl  relativeSpeed  ETV
vector 112  scenario.node[5].appl  nodeId  ETV
vector 116  scenario.node[5].appl  acceleration  ETV
vector 117  scenario.node[5].appl  controllerAcceleration  ETV
vector 113  scenario.node[5].appl  speed  ETV
vector 114  scenario.node[5].appl  posx  ETV
vector 115  scenario.node[5].appl  posy  ETV
vector 132  scenario.node[6].appl  distance  ETV
vector 133  scenario.node[6].appl  relativeSpeed  ETV
vector 134  scenario.node[6].appl  nodeId  ETV
vector 138  scenario.node[6].appl  acceleration  ETV
vector 139  scenario.node[6].appl  controllerAcceleration  ETV
vector 135  scenario.node[6].appl  speed  ETV
vector 136  scenario.node[6].appl  posx  ETV
vector 137  scenario.node[6].appl  posy  ETV
vector 154  scenario.node[7].appl  distance  ETV
vector 155  scenario.node[7].appl  relativeSpeed  ETV
vector 156  scenario.node[7].appl  nodeId  ETV
vector 160  scenario.node[7].appl  acceleration  ETV
vector 161  scenario.node[7].appl  controllerAcceleration  ETV
vector 157  scenario.node[7].appl  speed  ETV
vector 158  scenario.node[7].appl  posx  ETV
vector 159  scenario.node[7].appl  posy  ETV
vector 58  scenario.node[2].prot  frontDelay  ETV
vector 56  scenario.node[2].prot  frontDelayId  ETV
vector 102  scenario.node[4].prot  frontDelay  ETV
vector 100  scenario.node[4].prot  frontDelayId  ETV
vector 146  scenario.node[6].prot  frontDelay  ETV
vector 144  scenario.node[6].prot  frontDelayId  ETV
vector 168  scenario.node[7].prot  frontDelay  ETV
vector 166  scenario.node[7].prot  frontDelayId  ETV
vector 124  scenario.node[5].prot  frontDelay  ETV
vector 122  scenario.node[5].prot  frontDelayId  ETV
vector 35  scenario.node[1].prot  leaderDelay  ETV
vector 33  scenario.node[1].prot  leaderDelayId  ETV
vector 36  scenario.node[1].prot  frontDelay  ETV
vector 34  scenario.node[1].prot  frontDelayId  ETV
vector 57  scenario.node[2].prot  leaderDelay  ETV
vector 55  scenario.node[2].prot  leaderDelayId  ETV
vector 79  scenario.node[3].prot  leaderDelay  ETV
vector 77  scenario.node[3].prot  leaderDelayId  ETV
vector 101  scenario.node[4].prot  leaderDelay  ETV
vector 99  scenario.node[4].prot  leaderDelayId  ETV
vector 123  scenario.node[5].prot  leaderDelay  ETV
vector 121  scenario.node[5].prot  leaderDelayId  ETV
vector 145  scenario.node[6].prot  leaderDelay  ETV
vector 143  scenario.node[6].prot  leaderDelayId  ETV
vector 167  scenario.node[7].prot  leaderDelay  ETV
vector 165  scenario.node[7].prot  leaderDelayId  ETV
vector 80  scenario.node[3].prot  frontDelay  ETV
vector 78  scenario.node[3].prot  frontDelayId  ETV
vector 8  scenario.node[0].prot  nodeId  ETV
vector 9  scenario.node[0].prot  busyTime  ETV
vector 10  scenario.node[0].prot  collisions  ETV
vector 30  scenario.node[1].prot  nodeId  ETV
vector 31  scenario.node[1].prot  busyTime  ETV
vector 32  scenario.node[1].prot  collisions  ETV
vector 52  scenario.node[2].prot  nodeId  ETV
vector 53  scenario.node[2].prot  busyTime  ETV
vector 54  scenario.node[2].prot  collisions  ETV
vector 74  scenario.node[3].prot  nodeId  ETV
vector 75  scenario.node[3].prot  busyTime  ETV
vector 76  scenario.node[3].prot  collisions  ETV
vector 96  scenario.node[4].prot  nodeId  ETV
vector 97  scenario.node[4].prot  busyTime  ETV
vector 98  scenario.node[4].prot  collisions  ETV
vector 118  scenario.node[5].prot  nodeId  ETV
vector 119  scenario.node[5].prot  busyTime  ETV
vector 120  scenario.node[5].prot  collisions  ETV
vector 140  scenario.node[6].prot  nodeId  ETV
vector 141  scenario.node[6].prot  busyTime  ETV
vector 142  scenario.node[6].prot  collisions  ETV
vector 162  scenario.node[7].prot  nodeId  ETV
vector 163  scenario.node[7].prot  busyTime  ETV
vector 164  scenario.node[7].prot  collisions  ETV
7	11249 9274 232 217179 1.11 40.01 390 -1.5 1.5 -13.178018943691 630.45678324527
6	20523 12261 232 217179 1.11 40.01 390 -1.472274679513 1.4513430531444 -12.857113343937 428.2362930516
5	32784 7902 232 217179 1.11 40.01 390 36.55 36.55 14254.5 521001.975
4	40686 11754 232 217179 1.11 40.01 390 201.9942813872 746.46248172096 185427.46349016 97821881.512756
3	52440 11756 232 217179 1.11 40.01 390 12.59908680102 15.853603639796 5458.1228854226 76676.960052239
1	64196 6342 232 217179 1.11 40.01 390 0 0 0 0
0	70538 6732 232 217179 1.11 40.01 390 -1 -1 -390 390
2	77270 6342 232 217179 1.11 40.01 390 0 0 0 0
10	83612 558 5168 217102 2 40 39 0 0 0 0
9	84170 754 5168 217102 2 40 39 0.023297 0.02625 1.020797 0.026727125209
8	84924 519 5168 217102 2 40 39 0 0 0 0
51	85443 12506 234 217181 1.11 40.01 390 -1.5013789169821 1.5 35.044144015488 499.53312929005
50	97949 12671 234 217181 1.11 40.01 390 -1.4795465338656 1.4451253720505 35.709655916214 357.49802577019
49	110620 8292 234 217181 1.11 40.01 390 36.55 36.55 14254.5 521001.975
48	118912 12146 234 217181 1.11 40.01 390 153.99428138733 723.0255858774 167456.74757416 81962777.240038
47	131058 12155 234 217181 1.11 40.01 390 12.591631837831 17.815104016469 5705.4531813195 84387.889646949
45	143213 13388 234 217181 1.11 40.01 390 -1.098685500255 0.013626159978871 -47.216198758257 40.825708209689
44	156601 12139 234 217181 1.11 40.01 390 15.363620138762 20.08464880045 7699.8211919811 152326.87959603
46	168740 6732 234 217181 1.11 40.01 390 2 2 780 1560
58	175472 15581 832 217223 1.212436360941 40.012436534847 389 0.099999036725 0.100012284181 38.899999454792 3.8899998944649
57	191053 15561 1244 217070 1.297803481717 39.997804405777 388 0.099999037459 0.100012284027 38.800000204946 3.8800000444958
56	206614 10561 832 217223 1.212436360941 40.012436534847 389 2 2 778 1556
55	217175 10545 1244 217070 1.297803481717 39.997804405777 388 2 2 776 1552
54	227720 558 5170 217104 2 40 39 0 0 0 0
53	228278 793 5170 217104 2 40 39 0.023296 0.02625 1.020796 0.026727078616
52	229071 558 5170 217104 2 40 39 2 2 78 156
73	229629 12603 235 217182 1.11 40.01 390 -1.4907242783574 1.4960972912316 43.508523357266 494.53351786188
72	242232 12647 235 217182 1.11 40.01 390 -1.4676550540285 1.443132550405 44.279723241257 359.88243058451
71	254879 8292 235 217182 1.11 40.01 390 36.55 36.55 14254.5 521001.975
70	263171 12158 235 217182 1.11 40.01 390 129.99428138733 702.10367930376 158173.94931565 74250404.214869
69	275329 12144 235 217182 1.11 40.01 390 12.599807558435 18.450861103639 5736.5342350035 85500.997542548
67	287473 13348 235 217182 1.11 40.01 390 -0.85422826160679 0.014939185720166 -31.438150243141 19.083132346026
66	300821 12128 235 217182 1.11 40.01 390 16.939033611448 20.042503327411 7723.4198795862 153068.71500233
68	312949 6732 235 217182 1.11 40.01 390 3 3 1170 3510
80	319681 15545 1312 217147 1.307225561772 40.007226475594 388 0.099999037175 0.100012284027 38.800000194708 3.8800000424451
79	335226 15559 1250 217076 1.297803561772 39.997804475622 388 0.099999037175 0.100012284033 38.800000194736 3.8800000424538
78	350785 10538 1312 217147 1.307225561772 40.007226475594 388 3 3 1164 3492
77	361323 10550 1250 217076 1.297803561772 39.997804475622 388 3 3 1164 3492
76	371873 558 5171 217105 2 40 39 0 0 0 0
75	372431 793 5171 217105 2 40 39 0.023297 0.02625 1.020797 0.026727125209
74	373224 558 5171 217105 2 40 39 3 3 117 351
95	373782 12573 236 217183 1.11 40.01 390 -1.4989614353725 1.5005025368356 50.453542301837 507.71343453207
94	386355 12658 236 217183 1.11 40.01 390 -1.4660392114482 1.4462525390432 50.567066070073 364.61201934683
93	399013 8292 236 217183 1.11 40.01 390 36.55 36.55 14254.5 521001.975
92	407305 12156 236 217183 1.11 40.01 390 105.99428138733 680.10885244979 148861.03249589 66942934.144191
91	419461 12156 236 217183 1.11 40.01 390 12.598682328386 18.969300369318 5756.8049428048 86248.796329661
89	431617 13345 236 217183 1.11 40.01 390 -0.62163456839736 0.014072237208355 -20.713505033708 8.4757410281885
88	444962 12130 236 217183 1.11 40.01 390 18.00728820529 20.006724495562 7753.322233913 154185.45165928
90	457092 6732 236 217183 1.11 40.01 390 4 4 1560 6240
102	463824 15979 902 217293 1.235040521052 40.03504067796 389 0.099999036233 0.100012284185 38.899999437794 3.8899998910654
101	479803 15926 1256 217082 1.297803641828 39.99780454903 388 0.099999036968 0.100012284034 38.800000188088 3.8800000411242
100	495729 10952 902 217293 1.235040521052 40.03504067796 389 4 4 1556 6224
99	506681 10533 1256 217082 1.297803641828 39.99780454903 388 4 4 1552 6208
98	517214 558 5172 217106 2 40 39 0 0 0 0
97	517772 793 5172 217106 2 40 39 0.023297 0.02625 1.020797 0.026727125209
96	518565 558 5172 217106 2 40 39 4 4 156 624
117	519123 12839 237 217184 1.11 40.01 390 -1.5271094739155 1.5255532070005 56.003535672977 525.6045357701
116	531962 13042 237 217184 1.11 40.01 390 -1.4653752109981 1.4466599084709 55.079662574423 368.03115279774
115	545004 8682 237 217184 1.11 40.01 390 36.55 36.55 14254.5 521001.975
114	553686 12535 237 217184 1.11 40.01 390 81.994281387329 657.32529706559 139525.60279046 60052582.066172
113	566221 12531 237 217184 1.11 40.01 390 12.599816654589 19.397529105557 5769.126936666 86717.107575735
111	578752 13651 237 217184 1.11 40.01 390 -0.44860915625263 0.0205895317914 -12.827664521941 3.8483419649363
110	592403 12518 237 217184 1.11 40.01 390 18.792539695317 20.044767102669 7775.6761453056 155043.67121744
112	604921 7122 237 217184 1.11 40.01 390 5 5 1950 9750
124	612043 15937 1178 217004 1.297390081439 39.99739118155 388 0.09999904103 0.100012284085 38.800000380997 3.880000079703
123	627980 15927 1262 217088 1.297803721883 39.997804625058 388 0.09999903682 0.100012284042 38.800000184061 3.8800000403188
122	643907 10926 1178 217004 1.297390081439 39.99739118155 388 5 5 1940 9700
121	654833 10928 1262 217088 1.297803721883 39.997804625058 388 5 5 1940 9700
120	665761 597 5173 217107 2 40 39 0 0 0 0
119	666358 832 5173 217107 2 40 39 0.023297 0.02625 1.020797 0.026727125209
118	667190 597 5173 217107 2 40 39 5 5 195 975
139	667787 12968 238 217185 1.11 40.01 390 -1.4994812224599 1.5010910186343 58.818936388771 510.628452289
138	680755 13024 238 217185 1.11 40.01 390 -1.460890229338 1.4424475023675 58.143293289084 367.8751199882
137	693779 8682 238 217185 1.11 40.01 390 36.55 36.55 14254.5 521001.975
136	702461 12540 238 217185 1.11 40.01 390 57.994283294678 634.11352010549 130185.43607314 53602257.950276
135	715001 12544 238 217185 1.11 40.01 390 12.605927650691 19.69868321151 5777.1154800963 87018.992766811
133	727545 13635 238 217185 1.11 40.01 390 -0.30134932110326 0.021050553268859 -8.5393400560233 1.573001392297
132	741180 12542 238 217185 1.11 40.01 390 19.217800042222 20.006916392229 7780.3264881889 155220.19960054
134	753722 7122 238 217185 1.11 40.01 390 6 6 2340 14040
146	760844 15940 970 216796 1.248713681163 39.94871479534 388 0.099999041556 0.100012284096 38.800000395063 3.8800000825163
145	776784 15909 1268 217094 1.297803801938 39.997804702504 388 0.09999903672 0.100012284041 38.800000181452 3.880000039797
144	792693 10935 970 216796 1.248713681163 39.94871479534 388 6 6 2328 13968
143	803628 10918 1268 217094 1.297803801938 39.997804702504 388 6 6 2328 13968
142	814546 597 5174 217108 2 40 39 0 0 0 0
141	815143 832 5174 217108 2 40 39 0.023297 0.02625 1.020797 0.026727125209
140	815975 597 5174 217108 2 40 39 6 6 234 1404
161	816572 12193 239 217186 1.11 40.01 390 -1.5084785485834 1.5101632440685 61.13030287667 519.03642176723
160	828765 13024 239 217186 1.11 40.01 390 -1.4625053263375 1.4442535721265 60.15811268667 370.46576984129
159	841789 8682 239 217186 1.11 40.01 390 36.55 36.55 14254.5 521001.975
158	850471 12539 239 217186 1.11 40.01 390 33.994282817841 610.63064801641 120836.31341699 47590644.86052
157	863010 12546 239 217186 1.11 40.01 390 12.604867500514 19.898270976717 5782.3567980935 87220.163327973
155	875556 13700 239 217186 1.11 40.01 390 -0.2004672767442 0.022636834269107 -5.8227509301105 0.71305909071935
154	889256 12536 239 217186 1.11 40.01 390 19.486863844385 20.011309431129 7789.2274825129 155572.22628657
156	901792 7122 239 217186 1.11 40.01 390 7 7 2730 19110
168	908914 15913 1040 216866 1.263894761218 39.963895873704 388 0.099999047012 0.100012284096 38.800000393372 3.8800000821778
167	924827 15924 1274 217100 1.297803881994 39.997804780848 388 0.099999036655 0.10001228404 38.80000017974 3.8800000394546
166	940751 10916 1040 216866 1.263894761218 39.963895873704 388 7 7 2716 19012
165	951667 10925 1274 217100 1.297803881994 39.997804780848 388 7 7 2716 19012
164	962592 597 5175 217109 2 40 39 0 0 0 0
163	963189 832 5175 217109 2 40 39 0.023297 0.02625 1.020797 0.026727125209
162	964021 597 5175 217109 2 40 39 7 7 273 1911
22	964618 12170 233 217325 1.11 40.04 391 0 20.410895354756 7155.8413299416 139739.44510536
23	976788 13019 233 217325 1.11 40.04 391 -4.4042333268684 0.14226263692399 -203.982089129 663.97104530976
24	989807 6750 233 217325 1.11 40.04 391 1 1 391 391
25	996557 12183 233 217325 1.11 40.04 391 12.588085979204 17.074401288358 5674.8447539997 83038.01039281
26	1008740 12180 233 217325 1.11 40.04 391 177.99428138733 742.85800849073 177458.48739066 90626192.218788
27	1020920 8314 233 217325 1.11 40.04 391 36.55 36.55 14291.05 522337.8775
28	1029234 12723 233 217325 1.11 40.04 391 -1.4899163908959 1.4506836311034 24.462914927508 354.69111249492
29	1041957 11611 233 217325 1.11 40.04 391 -1.5466261414329 1.5427619280687 22.221622956426 511.76874901783
30	1053568 558 5169 217103 2 40 39 1 1 39 39
31	1054126 793 5169 217103 2 40 39 0.023297 0.02625 1.020797 0.026727125209
32	1054919 558 5169 217103 2 40 39 0 0 0 0
33	1055477 10536 1238 217064 1.297803401661 39.997804341187 388 1 1 388 388
34	1066013 10536 1238 217064 1.297803401661 39.997804341187 388 1 1 388 388
35	1076549 15549 1238 217064 1.297803401661 39.997804341187 388 0.099999037826 0.100012284021 38.800000220412 3.880000047589
36	1092098 15549 1238 217064 1.297803401661 39.997804341187 388 0.099999037826 0.100012284021 38.800000220412 3.880000047589
