version 2
run SinusoidalJammingDetail-104-20170801-16:16:07-33486
attr CACCSpacing 11
attr attackAcc -30
attr attackPos 7
attr attackSpeed 150
attr attackStart 31
attr attacker 1
attr beaconInterval 0.1
attr configname SinusoidalJammingDetail
attr controller 1
attr datetime 20170801-16:16:07
attr experiment SinusoidalJammingDetail
attr fakeAcc "(1 == 4)"
attr fakePos "(1 == 2)"
attr fakeSpeed "(1 == 3)"
attr inifile omnetpp_104.ini
attr iterationvars "$leaderSpeed=50, $controller=1, $CACCSpacing=11, $sController=\"CACC\", $attacker=1, $attackStart=31, $attackSpeed=150, $attackPos=7, $attackAcc=-30, $0=11, $1=0, $nCars=8, $platoonSize=8, $nLanes=1, $beaconInterval=0.1, $priority=2, $packetSize=200, $ploegH=0.5, $leaderHeadway=1.2, $fakeSpeed=(1 == 3), $fakeAcc=(1 == 4), $fakePos=(1 == 2)"
attr iterationvarsf leaderSpeed=50,controller=1,CACCSpacing=11,sController=CACC,attacker=1,attackStart=31,attackSpeed=150,attackPos=7,attackAcc=-30,11,0,nCars=8,platoonSize=8,nLanes=1,beaconInterval=0.1,priority=2,packetSize=200,ploegH=0.5,leaderHeadway=1.2,fakeSpeed=(1_==_3),fakeAcc=(1_==_4),fakePos=(1_==_2)-
attr leaderHeadway 1.2
attr leaderSpeed 50
attr measurement "$leaderSpeed=50, $controller=1, $CACCSpacing=11, $sController=\"CACC\", $attacker=1, $attackStart=31, $attackSpeed=150, $attackPos=7, $attackAcc=-30, $0=11, $1=0, $nCars=8, $platoonSize=8, $nLanes=1, $beaconInterval=0.1, $priority=2, $packetSize=200, $ploegH=0.5, $leaderHeadway=1.2, $fakeSpeed=(1 == 3), $fakeAcc=(1 == 4), $fakePos=(1 == 2)"
attr nCars 8
attr nLanes 1
attr network scenario
attr packetSize 200
attr platoonSize 8
attr ploegH 0.5
attr priority 2
attr processid 33486
attr repetition 4
attr replication #4
attr resultdir results
attr runnumber 104
attr sController "\"CACC\""
attr seedset 4
param **.coreDebug false
param **.debug false
param **.headway 0.1s
param **.numberOfCars 8
param **.numberOfCarsPerPlatoon 8
param **.numberOfLanes 1
param **.numericController 1
param **.traffic.nCars 8
param **.traffic.nLanes 1
param **.traffic.platoonInsertDistance 11m
param **.traffic.platoonInsertHeadway 0s
param **.traffic.platoonInsertSpeed 50kmph
param **.traffic.platoonInsertTime "1 s"
param **.traffic.platoonLeaderHeadway 1.2s
param **.traffic.platoonSize 8
param **.traffic.platooningVType "\"vtypeauto\""
param **.traffic_type "\"PlatoonsTrafficManager\""
param *.**.nic.mac1609_4.bitrate 6Mbps
param *.**.nic.mac1609_4.txPower 100mW
param *.**.nic.mac1609_4.useServiceChannel false
param *.**.nic.phy80211p.analogueModels "xmldoc(\"config.xml\")"
param *.**.nic.phy80211p.decider "xmldoc(\"config.xml\")"
param *.**.nic.phy80211p.maxTXPower 100mW
param *.**.nic.phy80211p.sensitivity -94dBm
param *.**.nic.phy80211p.thermalNoise -95dBm
param *.**.nic.phy80211p.usePropagationDelay true
param *.**.nic.phy80211p.useThermalNoise true
param *.annotations.draw false
param *.connectionManager.alpha 2.0
param *.connectionManager.carrierFrequency "5.890e9 Hz"
param *.connectionManager.pMax 100mW
param *.connectionManager.sat -94dBm
param *.connectionManager.sendDirect true
param *.manager.autoShutdown true
param *.manager.commandLine "\"sumo --remote-port $port --seed $seed --configuration-file $configFile\""
param *.manager.configFile "\"./sumocfg/freeway.sumo.cfg\""
param *.manager.host "\"localhost\""
param *.manager.margin 25
param *.manager.moduleDisplayString "\"\""
param *.manager.moduleName "\"node\""
param *.manager.moduleType "\"Car\""
param *.manager.updateInterval 0.01s
param *.node[*].appl.attackStart 31s
param *.node[*].appl.attackerType 1
param *.node[*].appl.simulationDuration "60 s"
param *.node[*].appl_type "\"SimplePlatooningApp\""
param *.node[*].helper.nCars 8
param *.node[*].helper.nLanes 1
param *.node[*].helper.platoonSize 8
param *.node[*].helper_type "\"PositionHelper\""
param *.node[*].mobility.x 0
param *.node[*].mobility.y 0
param *.node[*].mobility.z 1.895
param *.node[*].prot.attackStart 31s
param *.node[*].prot.attackerType 1
param *.node[*].prot.attackingNode 3
param *.node[*].prot.beaconingInterval 0.1s
param *.node[*].prot.fakeAcc "(1 == 4)"
param *.node[*].prot.fakePos "(1 == 2)"
param *.node[*].prot.fakeSpeed "(1 == 3)"
param *.node[*].prot.maliciousAcc "-30 mpss"
param *.node[*].prot.maliciousSpeed 150kmph
param *.node[*].prot.packetSize 200
param *.node[*].prot.priority 2
param *.node[*].prot.shiftX "7 m"
param *.node[*].prot.useControllerAcceleration true
param *.node[*].protocol_type "\"SimplePlatooningBeaconing\""
param *.node[*].scenario.accHeadway 0.1s
param *.node[*].scenario.caccC1 0.5
param *.node[*].scenario.caccOmegaN "0.2 Hz"
param *.node[*].scenario.caccSpacing 11m
param *.node[*].scenario.caccXi 1
param *.node[*].scenario.controller "\"CACC\""
param *.node[*].scenario.engineTau "0.5 s"
param *.node[*].scenario.leaderHeadway 1.2s
param *.node[*].scenario.leaderOscillationFrequency "0.2 Hz"
param *.node[*].scenario.leaderSpeed 50kmph
param *.node[*].scenario.oscillationAmplitude "10 kmph"
param *.node[*].scenario.ploegH 0.5s
param *.node[*].scenario.ploegKd 0.7
param *.node[*].scenario.ploegKp 0.2
param *.node[*].scenario.startOscillating "5 s"
param *.node[*].scenario.useRealisticEngine false
param *.node[*].scenario_type "\"SinusoidalScenario\""
param *.node[*].unicast.packetLossRate 0
param *.obstacles.debug false
param *.playgroundSizeX 65000m
param *.playgroundSizeY 25000m
param *.playgroundSizeZ 50m
param *.world.use2D false
param *.world.useTorus false

vector 0  scenario.node[0].appl  distance  ETV
vector 1  scenario.node[0].appl  relativeSpeed  ETV
vector 2  scenario.node[0].appl  nodeId  ETV
vector 6  scenario.node[0].appl  acceleration  ETV
vector 7  scenario.node[0].appl  controllerAcceleration  ETV
vector 3  scenario.node[0].appl  speed  ETV
vector 4  scenario.node[0].appl  posx  ETV
vector 5  scenario.node[0].appl  posy  ETV
vector 22  scenario.node[1].appl  distance  ETV
vector 23  scenario.node[1].appl  relativeSpeed  ETV
vector 24  scenario.node[1].appl  nodeId  ETV
vector 28  scenario.node[1].appl  acceleration  ETV
vector 29  scenario.node[1].appl  controllerAcceleration  ETV
vector 25  scenario.node[1].appl  speed  ETV
vector 26  scenario.node[1].appl  posx  ETV
vector 27  scenario.node[1].appl  posy  ETV
vector 44  scenario.node[2].appl  distance  ETV
vector 45  scenario.node[2].appl  relativeSpeed  ETV
vector 46  scenario.node[2].appl  nodeId  ETV
vector 50  scenario.node[2].appl  acceleration  ETV
vector 51  scenario.node[2].appl  controllerAcceleration  ETV
vector 47  scenario.node[2].appl  speed  ETV
vector 48  scenario.node[2].appl  posx  ETV
vector 49  scenario.node[2].appl  posy  ETV
vector 66  scenario.node[3].appl  distance  ETV
vector 67  scenario.node[3].appl  relativeSpeed  ETV
vector 68  scenario.node[3].appl  nodeId  ETV
vector 72  scenario.node[3].appl  acceleration  ETV
vector 73  scenario.node[3].appl  controllerAcceleration  ETV
vector 69  scenario.node[3].appl  speed  ETV
vector 70  scenario.node[3].appl  posx  ETV
vector 71  scenario.node[3].appl  posy  ETV
vector 88  scenario.node[4].appl  distance  ETV
vector 89  scenario.node[4].appl  relativeSpeed  ETV
vector 90  scenario.node[4].appl  nodeId  ETV
vector 94  scenario.node[4].appl  acceleration  ETV
vector 95  scenario.node[4].appl  controllerAcceleration  ETV
vector 91  scenario.node[4].appl  speed  ETV
vector 92  scenario.node[4].appl  posx  ETV
vector 93  scenario.node[4].appl  posy  ETV
vector 110  scenario.node[5].appl  distance  ETV
vector 111  scenario.node[5].appl  relativeSpeed  ETV
vector 112  scenario.node[5].appl  nodeId  ETV
vector 116  scenario.node[5].appl  acceleration  ETV
vector 117  scenario.node[5].appl  controllerAcceleration  ETV
vector 113  scenario.node[5].appl  speed  ETV
vector 114  scenario.node[5].appl  posx  ETV
vector 115  scenario.node[5].appl  posy  ETV
vector 132  scenario.node[6].appl  distance  ETV
vector 133  scenario.node[6].appl  relativeSpeed  ETV
vector 134  scenario.node[6].appl  nodeId  ETV
vector 138  scenario.node[6].appl  acceleration  ETV
vector 139  scenario.node[6].appl  controllerAcceleration  ETV
vector 135  scenario.node[6].appl  speed  ETV
vector 136  scenario.node[6].appl  posx  ETV
vector 137  scenario.node[6].appl  posy  ETV
vector 154  scenario.node[7].appl  distance  ETV
vector 155  scenario.node[7].appl  relativeSpeed  ETV
vector 156  scenario.node[7].appl  nodeId  ETV
vector 160  scenario.node[7].appl  acceleration  ETV
vector 161  scenario.node[7].appl  controllerAcceleration  ETV
vector 157  scenario.node[7].appl  speed  ETV
vector 158  scenario.node[7].appl  posx  ETV
vector 159  scenario.node[7].appl  posy  ETV
vector 102  scenario.node[4].prot  frontDelay  ETV
vector 100  scenario.node[4].prot  frontDelayId  ETV
vector 35  scenario.node[1].prot  leaderDelay  ETV
vector 33  scenario.node[1].prot  leaderDelayId  ETV
vector 36  scenario.node[1].prot  frontDelay  ETV
vector 34  scenario.node[1].prot  frontDelayId  ETV
vector 57  scenario.node[2].prot  leaderDelay  ETV
vector 55  scenario.node[2].prot  leaderDelayId  ETV
vector 79  scenario.node[3].prot  leaderDelay  ETV
vector 77  scenario.node[3].prot  leaderDelayId  ETV
vector 101  scenario.node[4].prot  leaderDelay  ETV
vector 99  scenario.node[4].prot  leaderDelayId  ETV
vector 123  scenario.node[5].prot  leaderDelay  ETV
vector 121  scenario.node[5].prot  leaderDelayId  ETV
vector 145  scenario.node[6].prot  leaderDelay  ETV
vector 143  scenario.node[6].prot  leaderDelayId  ETV
vector 167  scenario.node[7].prot  leaderDelay  ETV
vector 165  scenario.node[7].prot  leaderDelayId  ETV
vector 80  scenario.node[3].prot  frontDelay  ETV
vector 78  scenario.node[3].prot  frontDelayId  ETV
vector 146  scenario.node[6].prot  frontDelay  ETV
vector 144  scenario.node[6].prot  frontDelayId  ETV
vector 58  scenario.node[2].prot  frontDelay  ETV
vector 56  scenario.node[2].prot  frontDelayId  ETV
vector 124  scenario.node[5].prot  frontDelay  ETV
vector 122  scenario.node[5].prot  frontDelayId  ETV
vector 168  scenario.node[7].prot  frontDelay  ETV
vector 166  scenario.node[7].prot  frontDelayId  ETV
vector 8  scenario.node[0].prot  nodeId  ETV
vector 9  scenario.node[0].prot  busyTime  ETV
vector 10  scenario.node[0].prot  collisions  ETV
vector 30  scenario.node[1].prot  nodeId  ETV
vector 31  scenario.node[1].prot  busyTime  ETV
vector 32  scenario.node[1].prot  collisions  ETV
vector 52  scenario.node[2].prot  nodeId  ETV
vector 53  scenario.node[2].prot  busyTime  ETV
vector 54  scenario.node[2].prot  collisions  ETV
vector 74  scenario.node[3].prot  nodeId  ETV
vector 75  scenario.node[3].prot  busyTime  ETV
vector 76  scenario.node[3].prot  collisions  ETV
vector 96  scenario.node[4].prot  nodeId  ETV
vector 97  scenario.node[4].prot  busyTime  ETV
vector 98  scenario.node[4].prot  collisions  ETV
vector 118  scenario.node[5].prot  nodeId  ETV
vector 119  scenario.node[5].prot  busyTime  ETV
vector 120  scenario.node[5].prot  collisions  ETV
vector 140  scenario.node[6].prot  nodeId  ETV
vector 141  scenario.node[6].prot  busyTime  ETV
vector 142  scenario.node[6].prot  collisions  ETV
vector 162  scenario.node[7].prot  nodeId  ETV
vector 163  scenario.node[7].prot  busyTime  ETV
vector 164  scenario.node[7].prot  collisions  ETV
7	232	1.11	-4.215365603244e-07
7	788	1.21	-4.123519392607e-07
7	1344	1.31	-3.9742146640265e-07
7	1900	1.41	-3.7804518804307e-07
7	2456	1.51	-3.5536931619617e-07
7	3012	1.61	-3.3039333047213e-07
7	3568	1.71	-3.039784495229e-07
7	4124	1.81	-2.7685694803381e-07
7	4680	1.91	-2.4964219491608e-07
7	5244	2.01	-2.2283905920517e-07
7	5800	2.11	-1.9685434082817e-07
7	6356	2.21	-1.7200705926257e-07
7	6912	2.31	-1.4853853436136e-07
7	7468	2.41	-1.2662199289082e-07
7	8024	2.51	-1.0637172032091e-07
7	8580	2.61	-8.7851576680009e-08
7	9136	2.71	-7.1082913777332e-08
7	9692	2.81	-5.6051822738823e-08
7	10248	2.91	-4.2715759818179e-08
7	10812	3.01	-3.1009408374416e-08
7	11368	3.11	-2.0849929782685e-08
7	11924	3.21	-1.2141658345399e-08
7	12480	3.31	-4.7800785551999e-09
7	13036	3.41	1.3447181146375e-09
7	13592	3.51	6.3450702469936e-09
7	14148	3.61	1.0333288003039e-08
7	14704	3.71	1.3419677813431e-08
7	15260	3.81	1.5710899248234e-08
7	15816	3.91	1.7308703803565e-08
7	16380	4.01	1.830899876154e-08
7	16936	4.11	1.8801173951033e-08
7	17492	4.21	1.8867702067382e-08
7	18048	4.31	1.8583865113442e-08
7	18604	4.41	1.8017717096086e-08
7	19160	4.51	1.723012310606e-08
7	19716	4.61	1.6274986691656e-08
7	20272	4.71	1.5199535852162e-08
7	20828	4.81	1.4044672980162e-08
7	21384	4.91	1.2845363883685e-08
7	21949	5.01	1.1631094309905e-08
7	22506	5.11	0.3481478814383
7	23063	5.21	0.68726936236521
7	23620	5.31	1.0064706229906
7	24177	5.41	1.2963311628453
7	24734	5.51	1.5
7	25291	5.61	1.5
7	25848	5.71	1.5
7	26405	5.81	1.5
7	26962	5.91	1.5
7	27527	6.01	1.5
7	28084	6.11	1.5
7	28641	6.21	1.5
7	29198	6.31	1.5
7	29755	6.41	1.5
7	30312	6.51	1.4919234130517
7	30869	6.61	1.2264993275909
7	31426	6.71	0.92305383931647
7	31983	6.81	0.58908101929403
7	32540	6.91	0.23235621605629
7	33105	7.01	-0.13919559804423
7	33662	7.11	-0.51762846559318
7	34219	7.21	-0.89509993922417
7	34776	7.31	-1.2639902882471
7	35333	7.41	-1.5
7	35890	7.51	-1.5
7	36447	7.61	-1.5
7	37004	7.71	-1.5
7	37561	7.81	-1.5
7	38118	7.91	-1.5
7	38683	8.01	-1.5
7	39240	8.11	-1.5
7	39797	8.21	-1.5
7	40354	8.31	-1.5
7	40911	8.41	-1.5
7	41468	8.51	-1.5
7	42025	8.61	-1.5
7	42582	8.71	-1.5
7	43139	8.81	-1.5
7	43696	8.91	-1.5
7	44261	9.01	-1.5
7	44818	9.11	-1.5
7	45375	9.21	-1.5
7	45932	9.31	-1.5
7	46489	9.41	-1.5
7	47046	9.51	-1.1784535904988
7	47603	9.61	-0.73985166426131
7	48160	9.71	-0.29046662065306
7	48717	9.81	0.15868205664034
7	49274	9.91	0.59737147685681
7	49839	10.01	1.0162504341391
7	50396	10.11	1.4069035498462
7	50953	10.21	1.5
7	51510	10.31	1.5
7	52067	10.41	1.5
7	52624	10.51	1.5
7	53181	10.61	1.5
7	53738	10.71	1.5
7	54295	10.81	1.5
7	54852	10.91	1.5
7	55417	11.01	1.5
7	55974	11.11	1.5
7	56531	11.21	1.5
7	57088	11.31	1.5
7	57645	11.41	1.5
7	58202	11.51	1.5
7	58759	11.61	1.5
7	59316	11.71	1.5
7	59873	11.81	1.5
7	60430	11.91	1.1420569523224
7	60995	12.01	0.73271074172757
7	61552	12.11	0.30763491701868
7	62109	12.21	-0.12290183401692
7	62666	12.31	-0.54917422866109
7	63223	12.41	-0.96209331717302
7	63780	12.51	-1.3532900275371
7	64337	12.61	-1.5
7	64894	12.71	-1.5
7	65451	12.81	-1.5
7	66008	12.91	-1.5
7	66573	13.01	-1.5
7	67130	13.11	-1.5
7	67687	13.21	-1.5
7	68244	13.31	-1.5
7	68801	13.41	-1.5
7	69358	13.51	-1.5
7	69915	13.61	-1.5
7	70472	13.71	-1.5
7	71029	13.81	-1.5
7	71586	13.91	-1.5
7	72151	14.01	-1.5
7	72708	14.11	-1.5
7	73265	14.21	-1.5
7	73822	14.31	-1.5
7	74379	14.41	-1.3008305793183
7	74936	14.51	-0.88835736021285
7	75493	14.61	-0.45792464374985
7	76050	14.71	-0.020297800482021
7	76607	14.81	0.4143593475729
7	77164	14.91	0.8365748748462
7	77729	15.01	1.2376491838941
7	78286	15.11	1.5
7	78843	15.21	1.5
7	79400	15.31	1.5
7	79957	15.41	1.5
7	80514	15.51	1.5
7	81071	15.61	1.5
7	81628	15.71	1.5
7	82185	15.81	1.5
7	82742	15.91	1.5
7	83307	16.01	1.5
7	83864	16.11	1.5
7	84421	16.21	1.5
7	84978	16.31	1.5
7	85535	16.41	1.5
7	86092	16.51	1.5
7	86649	16.61	1.5
7	87206	16.71	1.5
7	87763	16.81	1.5
7	88320	16.91	1.2451238477388
7	88885	17.01	0.83347870135435
7	89442	17.11	0.40470958876969
7	89999	17.21	-0.030598062218257
7	90556	17.31	-0.46243980386594
7	91113	17.41	-0.8814833530456
7	91670	17.51	-1.2791500631716
7	92227	17.61	-1.5
7	92784	17.71	-1.5
7	93341	17.81	-1.5
7	93898	17.91	-1.5
7	94463	18.01	-1.5
7	95020	18.11	-1.5
7	95577	18.21	-1.5
7	96134	18.31	-1.5
7	96691	18.41	-1.5
7	97248	18.51	-1.5
7	97805	18.61	-1.5
7	98362	18.71	-1.5
7	98919	18.81	-1.5
7	99476	18.91	-1.5
7	100041	19.01	-1.5
7	100598	19.11	-1.5
7	101155	19.21	-1.5
7	101712	19.31	-1.5
7	102269	19.41	-1.2657245815134
7	102826	19.51	-0.85377693481579
7	103383	19.61	-0.42439560038158
7	103940	19.71	0.011767371267542
7	104497	19.81	0.44464851836336
7	105054	19.91	0.86486384400473
7	105619	20.01	1.2637899041122
7	106176	20.11	1.5
7	106733	20.21	1.5
7	107290	20.31	1.5
7	107847	20.41	1.5
7	108404	20.51	1.5
7	108961	20.61	1.5
7	109518	20.71	1.5
7	110075	20.81	1.5
7	110632	20.91	1.5
7	111197	21.01	1.5
7	111754	21.11	1.5
7	112311	21.21	1.5
7	112868	21.31	1.5
7	113425	21.41	1.5
7	113982	21.51	1.5
7	114539	21.61	1.5
7	115096	21.71	1.5
7	115653	21.81	1.5
7	116210	21.91	1.2580915517758
7	116775	22.01	0.84625491634779
7	117332	22.11	0.41709956367461
7	117889	22.21	-0.018747163543122
7	118446	22.31	-0.45124369149455
7	119003	22.41	-0.8710252053863
7	119560	22.51	-1.26948487946
7	120117	22.61	-1.5
7	120674	22.71	-1.5
7	121231	22.81	-1.5
7	121788	22.91	-1.5
7	122353	23.01	-1.5
7	122910	23.11	-1.5
7	123467	23.21	-1.5
7	124024	23.31	-1.5
7	124581	23.41	-1.5
7	125138	23.51	-1.5
7	125695	23.61	-1.5
7	126252	23.71	-1.5
7	126809	23.81	-1.5
7	127366	23.91	-1.5
7	127931	24.01	-1.5
7	128488	24.11	-1.5
7	129045	24.21	-1.5
7	129602	24.31	-1.5
7	130159	24.41	-1.260923965112
7	130716	24.51	-0.84904615684565
7	131273	24.61	-0.41980696481147
7	131830	24.71	0.01615709944571
7	132387	24.81	0.44879633965971
7	132944	24.91	0.86873882266827
7	133509	25.01	1.2673715557189
7	134066	25.11	1.5
7	134623	25.21	1.5
7	135180	25.31	1.5
7	135737	25.41	1.5
7	136294	25.51	1.5
7	136851	25.61	1.5
7	137408	25.71	1.5
7	137965	25.81	1.5
7	138522	25.91	1.5
7	139087	26.01	1.5
7	139644	26.11	1.5
7	140201	26.21	1.5
7	140758	26.31	1.5
7	141315	26.41	1.5
7	141872	26.51	1.5
7	142429	26.61	1.5
7	142986	26.71	1.5
7	143543	26.81	1.5
7	144100	26.91	1.259872851863
7	144665	27.01	0.84801032251393
7	145222	27.11	0.41880224309103
7	145779	27.21	-0.017118277442348
7	146336	27.31	-0.44970455708455
7	146893	27.41	-0.86958730431938
7	147450	27.51	-1.2681558149833
7	148007	27.61	-1.5
7	148564	27.71	-1.5
7	149121	27.81	-1.5
7	149678	27.91	-1.5
7	150243	28.01	-1.5
7	150800	28.11	-1.5
7	151357	28.21	-1.5
7	151914	28.31	-1.5
7	152471	28.41	-1.5
7	153028	28.51	-1.5
7	153585	28.61	-1.5
7	154142	28.71	-1.5
7	154699	28.81	-1.5
7	155256	28.91	-1.5
7	155821	29.01	-1.5
7	156378	29.11	-1.5
7	156935	29.21	-1.5
7	157492	29.31	-1.5
7	158049	29.41	-1.2602629232527
7	158606	29.51	-0.84839472385746
7	159163	29.61	-0.41917509845393
7	159720	29.71	0.016761581285863
7	160277	29.81	0.44936751475712
7	160834	29.91	0.86927243012053
7	161399	30.01	1.2678647739099
7	161956	30.11	1.5
7	162513	30.21	1.5
7	163070	30.31	1.5
7	163627	30.41	1.5
7	164184	30.51	1.5
7	164741	30.61	1.5
7	165298	30.71	1.5
7	165855	30.81	1.5
7	166412	30.91	1.5
7	166977	31.01	1.5
7	167534	31.11	1.5
7	168091	31.21	1.5
7	168648	31.31	1.5
7	169205	31.41	1.5
7	169762	31.51	1.5
7	170319	31.61	1.5
7	170876	31.71	1.5
7	171433	31.81	1.5
7	171990	31.91	1.2601181665191
7	172555	32.01	0.84825207129591
7	173112	32.11	0.4190367306424
7	173669	32.21	-0.01689395236456
7	174226	32.31	-0.44949259223739
7	174783	32.41	-0.86938928093775
7	175340	32.51	-1.2679727801784
7	175897	32.61	-1.5
7	176454	32.71	-1.5
7	177011	32.81	-1.5
7	177568	32.91	-1.5
7	178133	33.01	-1.5
7	178690	33.11	-1.5
7	179247	33.21	-1.5
7	179804	33.31	-1.5
7	180361	33.41	-1.5
7	180918	33.51	-1.5
7	181475	33.61	-1.5
7	182032	33.71	-1.5
7	182589	33.81	-1.5
7	183146	33.91	-1.5
7	183711	34.01	-1.5
7	184268	34.11	-1.5
7	184825	34.21	-1.5
7	185382	34.31	-1.5
7	185939	34.41	-1.2601718862043
7	186496	34.51	-0.8483050101162
7	187053	34.61	-0.4190880793783
7	187610	34.71	0.016844829035321
7	188167	34.81	0.44944617558577
7	188724	34.91	0.86934591722702
7	189289	35.01	1.2679326987079
7	189846	35.11	1.5
7	190403	35.21	1.5
7	190960	35.31	1.5
7	191517	35.41	1.5
7	192074	35.51	1.5
7	192631	35.61	1.5
7	193188	35.71	1.5
7	193745	35.81	1.5
7	194302	35.91	1.5
7	194867	36.01	1.5
7	195424	36.11	1.5
7	195981	36.21	1.5
7	196538	36.31	1.5
7	197095	36.41	1.5
7	197652	36.51	1.5
7	198209	36.61	1.5
7	198766	36.71	1.5
7	199323	36.81	1.5
7	199880	36.91	1.260151950659
7	200445	37.01	0.8482853643524
7	201002	37.11	0.41906902369986
7	201559	37.21	-0.016863058858293
7	202116	37.31	-0.44946340095208
6	232	1.11	-6.1957727837125e-08
6	788	1.21	-1.257166815094e-07
6	1344	1.31	-1.7576642363792e-07
6	1900	1.41	-2.1367210223389e-07
6	2456	1.51	-2.40935627005e-07
6	3012	1.61	-2.5897985977963e-07
6	3568	1.71	-2.6913706818732e-07
6	4124	1.81	-2.7264253077419e-07
6	4680	1.91	-2.70628319754e-07
6	5244	2.01	-2.6412187992264e-07
6	5800	2.11	-2.540470944723e-07
6	6356	2.21	-2.4122570607688e-07
6	6912	2.31	-2.2638122487706e-07
6	7468	2.41	-2.1014301410105e-07
6	8024	2.51	-1.9305321785623e-07
6	8580	2.61	-1.7557066911422e-07
6	9136	2.71	-1.5808012676644e-07
6	9692	2.81	-1.408965388805e-07
6	10248	2.91	-1.2427268103465e-07
6	10812	3.01	-1.0840643938081e-07
6	11368	3.11	-9.3446494986438e-08
6	11924	3.21	-7.9497652905047e-08
6	12480	3.31	-6.662919105338e-08
6	13036	3.41	-5.487734711096e-08
6	13592	3.51	-4.4252601583139e-08
6	14148	3.61	-3.474287524341e-08
6	14704	3.71	-2.631832529687e-08
6	15260	3.81	-1.8935253365271e-08
6	15816	3.91	-1.2538947657958e-08
6	16380	4.01	-7.0667027785021e-09
6	16936	4.11	-2.4508395313205e-09
6	17492	4.21	1.3796963571622e-09
6	18048	4.31	4.4970249746257e-09
6	18604	4.41	6.9737993158014e-09
6	19160	4.51	8.8805407472137e-09
6	19716	4.61	1.0285283735811e-08
6	20272	4.71	1.1253575848968e-08
6	20828	4.81	1.1845813219225e-08
6	21384	4.91	1.2119549808176e-08
6	21949	5.01	1.2126655235534e-08
6	22506	5.11	0.0068264407582674
6	23063	5.21	0.074594825204244
6	23620	5.31	0.19005133580965
6	24177	5.41	0.34050271604578
6	24734	5.51	0.51301637992296
6	25291	5.61	0.69025457770344
6	25848	5.71	0.83572671948744
6	26405	5.81	0.95506454367928
6	26962	5.91	1.0529631248657
6	27527	6.01	1.1332740595019
6	28084	6.11	1.1991569981921
6	28641	6.21	1.2532039549377
6	29198	6.31	1.2975412840174
6	29755	6.41	1.333913336549
6	30312	6.51	1.3635927235564
6	30869	6.61	1.3702053601566
6	31426	6.71	1.3272611912161
6	31983	6.81	1.2373810907324
6	32540	6.91	1.10404337413
6	33105	7.01	0.93147091874766
6	33662	7.11	0.72451590435048
6	34219	7.21	0.4885431822391
6	34776	7.31	0.22931329511646
6	35333	7.41	-0.044839399439311
6	35890	7.51	-0.30626147528494
6	36447	7.61	-0.52071863075458
6	37004	7.71	-0.69664819363986
6	37561	7.81	-0.84097171145086
6	38118	7.91	-0.95936726391912
6	38683	8.01	-1.0564928540992
6	39240	8.11	-1.1361696668779
6	39797	8.21	-1.2015324047802
6	40354	8.31	-1.2551526156937
6	40911	8.41	-1.2991398645553
6	41468	8.51	-1.3352247293753
6	42025	8.61	-1.3648268868815
6	42582	8.71	-1.3891109664646
6	43139	8.81	-1.4090323698644
6	43696	8.91	-1.4253748592747
6	44261	9.01	-1.4387813926779
6	44818	9.11	-1.4497794195627
6	45375	9.21	-1.4588016322197
6	45932	9.31	-1.4662029890339
6	46489	9.41	-1.472274679513
6	47046	9.51	-1.4696249147034
6	47603	9.61	-1.3967850639437
6	48160	9.71	-1.2587757641633
6	48717	9.81	-1.0660952218261
6	49274	9.91	-0.82923335021992
6	49839	10.01	-0.55852907837295
6	50396	10.11	-0.26404116072971
6	50953	10.21	0.039432698699926
6	51510	10.31	0.30182609752512
6	52067	10.41	0.51708007614977
6	52624	10.51	0.69366331155596
6	53181	10.61	0.83852306850822
6	53738	10.71	0.95735852384404
6	54295	10.81	1.0548449875937
6	54852	10.91	1.1348178423914
6	55417	11.01	1.2004234378608
6	55974	11.11	1.2542428765666
6	56531	11.21	1.2983935616091
6	57088	11.31	1.3346125010223
6	57645	11.41	1.364324646393
6	58202	11.51	1.3886989543336
6	58759	11.61	1.4086943764131
6	59316	11.71	1.4250975869215
6	59873	11.81	1.4385539327746
6	60430	11.91	1.4345627372796
6	60995	12.01	1.362344918871
6	61552	12.11	1.2299875654412
6	62109	12.21	1.0461448397713
6	62666	12.31	0.81967864248274
6	63223	12.41	0.55952045903922
6	63780	12.51	0.27454262948492
6	64337	12.61	-0.022341644884349
6	64894	12.71	-0.2878054805846
6	65451	12.81	-0.50557828687943
6	66008	12.91	-0.68422783828268
6	66573	13.01	-0.83078269404986
6	67130	13.11	-0.95100872081701
6	67687	13.21	-1.0496359374757
6	68244	13.31	-1.1305446069832
6	68801	13.41	-1.1969178964591
6	69358	13.51	-1.2513671116379
6	69915	13.61	-1.2960344327389
6	70472	13.71	-1.3326771936644
6	71029	13.81	-1.3627370202924
6	71586	13.91	-1.3873965479609
6	72151	14.01	-1.4076259495598
6	72708	14.11	-1.4242211047687
6	73265	14.21	-1.4378349121303
6	73822	14.31	-1.4490029758544
6	74379	14.41	-1.454259395185
6	74936	14.51	-1.4067454390036
6	75493	14.61	-1.2938574955303
6	76050	14.71	-1.124840905225
6	76607	14.81	-0.90912582142568
6	77164	14.91	-0.65618298375991
6	77729	15.01	-0.37539052553566
6	78286	15.11	-0.078063005087259
6	78843	15.21	0.20543869668082
6	79400	15.31	0.43800883573812
6	79957	15.41	0.62879735391554
6	80514	15.51	0.7853103904381
6	81071	15.61	0.91370559385755
6	81628	15.71	1.0190343806947
6	82185	15.81	1.1054406719046
6	82742	15.91	1.1763239259972
6	83307	16.01	1.2344728829815
6	83864	16.11	1.2821752809831
6	84421	16.21	1.3213078620836
6	84978	16.31	1.353410208459
6	85535	16.41	1.3797453137304
6	86092	16.51	1.4013492725669
6	86649	16.61	1.4190720434685
6	87206	16.71	1.433610888447
6	87763	16.81	1.4455378052071
6	88320	16.91	1.4502949065323
6	88885	17.01	1.3935559567521
6	89442	17.11	1.2733368701442
6	89999	17.21	1.0986742440538
6	90556	17.31	0.87879676591474
6	91113	17.41	0.62298329276036
6	91670	17.51	0.34043137853494
6	92227	17.61	0.043031849081565
6	92784	17.71	-0.23417644595263
6	93341	17.81	-0.4615837994951
6	93898	17.91	-0.648137035353
6	94463	18.01	-0.801175665225
6	95020	18.11	-0.92672064505575
6	95577	18.21	-1.0297112558181
6	96134	18.31	-1.1141994282598
6	96691	18.41	-1.1835091568821
6	97248	18.51	-1.2403672749222
6	97805	18.61	-1.2870107353907
6	98362	18.71	-1.325274618886
6	98919	18.81	-1.3566643306579
6	99476	18.91	-1.3824148273438
6	100041	19.01	-1.4035392035211
6	100598	19.11	-1.420868549604
6	101155	19.21	-1.4350846492013
6	101712	19.31	-1.4467468023362
6	102269	19.41	-1.451720194177
6	102826	19.51	-1.3984004323888
6	103383	19.61	-1.2808993810095
6	103940	19.71	-1.1083308503775
6	104497	19.81	-0.88999806036849
6	105054	19.91	-0.63525086466907
6	105619	20.01	-0.35335363991358
6	106176	20.11	-0.055983891307321
6	106733	20.21	0.22355126013291
6	107290	20.31	0.4528674463721
6	107847	20.41	0.6409865898874
6	108404	20.51	0.79530980944416
6	108961	20.61	0.92190860023873
6	109518	20.71	1.0257637030335
6	110075	20.81	1.1109610600444
6	110632	20.91	1.1808525670222
6	111197	21.01	1.2381879459472
6	111754	21.11	1.2852229265711
6	112311	21.21	1.3238079929604
6	112868	21.31	1.3554611865732
6	113425	21.41	1.3814278301394
6	113982	21.51	1.4027295220425
6	114539	21.61	1.4202043287794
6	115096	21.71	1.4345397567766
6	115653	21.81	1.4462998007621
6	116210	21.91	1.4512038299459
6	116775	22.01	1.3966149622043
6	117332	22.11	1.2781048258539
6	117889	22.21	1.1047586168255
6	118446	22.31	0.88585193073953
6	119003	22.41	0.63070830476128
6	119560	22.51	0.34856734381012
6	120117	22.61	0.0511856543703
6	120674	22.71	-0.22748748564663
6	121231	22.81	-0.45609652228009
6	121788	22.91	-0.6436355568189
6	122353	23.01	-0.79748288496297
6	122910	23.11	-0.92369127904615
6	123467	23.21	-1.0272261205623
6	124024	23.31	-1.1121607517778
6	124581	23.41	-1.1818367320961
6	125138	23.51	-1.2389953040925
6	125695	23.61	-1.2858852414526
6	126252	23.71	-1.3243513218477
6	126809	23.81	-1.3559069055024
6	127366	23.91	-1.3817934749051
6	127931	24.01	-1.4030294781042
6	128488	24.11	-1.4204503972245
6	129045	24.21	-1.4347416186069
6	129602	24.31	-1.4464653977715
6	130159	24.41	-1.4513952146874
6	130716	24.51	-1.3972773206753
6	131273	24.61	-1.2791416668554
6	131830	24.71	-1.1060840673016
6	132387	24.81	-0.88739036841616
6	132944	24.91	-0.63239387292562
6	133509	25.01	-0.35034337810913
6	134066	25.11	-0.052966136909482
6	134623	25.21	0.22602686982296
6	135180	25.31	0.45489830857282
6	135737	25.41	0.64265260424126
6	136294	25.51	0.79667652148707
6	136851	25.61	0.92302978013983
6	137408	25.71	1.026683461059
6	137965	25.81	1.1117155819768
6	138522	25.91	1.1814715378065
6	139087	26.01	1.2386957175778
6	139644	26.11	1.2856394761648
6	140201	26.21	1.3241497087115
6	140758	26.31	1.3557415125092
6	141315	26.41	1.3816577950445
6	141872	26.51	1.4029181733612
6	142429	26.61	1.4203590885678
6	142986	26.71	1.4346667137062
6	143543	26.81	1.4464039496636
6	144100	26.91	1.4513241957731
6	144665	27.01	1.3970315218257
6	145222	27.11	1.2787568961965
6	145779	27.21	1.105592192547
6	146336	27.31	0.88681945319422
6	146893	27.41	0.63176835684544
6	147450	27.51	0.34968428947462
6	148007	27.61	0.052305397195518
6	148564	27.71	-0.22656890652382
6	149121	27.81	-0.45534296745871
6	149678	27.91	-0.64301737940227
6	150243	28.01	-0.79697576416979
6	150800	28.11	-0.92327526336593
6	151357	28.21	-1.0268848428064
6	151914	28.31	-1.1118807851512
6	152471	28.41	-1.1816070619497
6	153028	28.51	-1.2388068945784
6	153585	28.61	-1.2857306800282
6	154142	28.71	-1.3242245276457
6	154699	28.81	-1.3558028900942
6	155256	28.91	-1.3817081460418
6	155821	29.01	-1.4029594787162
6	156378	29.11	-1.420392973346
6	156935	29.21	-1.4346945110265
6	157492	29.31	-1.446426753148
6	158049	29.41	-1.451350551031
6	158606	29.51	-1.3971227384756
6	159163	29.61	-1.2788996857301
6	159720	29.71	-1.1057747287552
6	160277	29.81	-0.8870313215759
6	160834	29.91	-0.6320004877848
6	161399	30.01	-0.34992887930123
6	161956	30.11	-0.052550599748891
6	162513	30.21	0.22636775502605
6	163070	30.31	0.45517795316936
6	163627	30.41	0.64288201021068
6	164184	30.51	0.79686471428388
6	164741	30.61	0.92318416378063
6	165298	30.71	1.0268101094166
6	165855	30.81	1.1118194777421
6	166412	30.91	1.1815567685211
6	166977	31.01	1.2387656364497
6	167534	31.11	1.2856968339927
6	168091	31.21	1.3241967621083
6	168648	31.31	1.3557801126831
6	169205	31.41	1.3816894606315
6	169762	31.51	1.4029441501719
6	170319	31.61	1.4203803986005
6	170876	31.71	1.4346841953552
6	171433	31.81	1.4464182907044
6	171990	31.91	1.4513407705126
6	172555	32.01	1.397088887688
6	173112	32.11	1.278846696081
6	173669	32.21	1.1057069889883
6	174226	32.31	0.88695269654568
6	174783	32.41	0.63191434325471
6	175340	32.51	0.34983811123848
6	175897	32.61	0.052459604300914
6	176454	32.71	-0.22644240298693
6	177011	32.81	-0.4552391904971
6	177568	32.91	-0.64293224614804
6	178133	33.01	-0.79690592524955
6	178690	33.11	-0.92321797112618
6	179247	33.21	-1.0268378432148
6	179804	33.31	-1.111842229116
6	180361	33.41	-1.1815754325719
6	180918	33.51	-1.2387809474721
6	181475	33.61	-1.2857093943635
6	182032	33.71	-1.3242070659869
6	182589	33.81	-1.3557885654523
6	183146	33.91	-1.3816963948463
6	183711	34.01	-1.4029498386432
6	184268	34.11	-1.4203850651285
6	184825	34.21	-1.4346880235333
6	185382	34.31	-1.446421431144
6	185939	34.41	-1.451344400094
6	186496	34.51	-1.397101449823
6	187053	34.61	-1.2788663607086
6	187610	34.71	-1.1057321274317
6	188167	34.81	-0.88698187454508
6	188724	34.91	-0.63194631176433
6	189289	35.01	-0.34987179555621
6	189846	35.11	-0.052493373002349
6	190403	35.21	0.22641470089031
6	190960	35.31	0.4552164651292
6	191517	35.41	0.64291360343098
6	192074	35.51	0.79689063172861
6	192631	35.61	0.92320542511199
6	193188	35.71	1.026827551113
6	193745	35.81	1.1118337860077
6	194302	35.91	1.1815685062823
6	194867	36.01	1.2387752655021
6	195424	36.11	1.2857047331693
6	195981	36.21	1.3242032421841
6	196538	36.31	1.355785428602
6	197095	36.41	1.3816938215363
6	197652	36.51	1.4029477276326
6	198209	36.61	1.4203833333644
6	198766	36.71	1.4346866028836
6	199323	36.81	1.4464202657166
6	199880	36.91	1.4513430531444
6	200445	37.01	1.3970967879747
6	201002	37.11	1.2788590631029
6	201559	37.21	1.1057227984756
6	202116	37.31	0.88697104649729
5	232	1.11	36.55
5	788	1.21	36.55
5	1344	1.31	36.55
5	1900	1.41	36.55
5	2456	1.51	36.55
5	3012	1.61	36.55
5	3568	1.71	36.55
5	4124	1.81	36.55
5	4680	1.91	36.55
5	5244	2.01	36.55
5	5800	2.11	36.55
5	6356	2.21	36.55
5	6912	2.31	36.55
5	7468	2.41	36.55
5	8024	2.51	36.55
5	8580	2.61	36.55
5	9136	2.71	36.55
5	9692	2.81	36.55
5	10248	2.91	36.55
5	10812	3.01	36.55
5	11368	3.11	36.55
5	11924	3.21	36.55
5	12480	3.31	36.55
5	13036	3.41	36.55
5	13592	3.51	36.55
5	14148	3.61	36.55
5	14704	3.71	36.55
5	15260	3.81	36.55
5	15816	3.91	36.55
5	16380	4.01	36.55
5	16936	4.11	36.55
5	17492	4.21	36.55
5	18048	4.31	36.55
5	18604	4.41	36.55
5	19160	4.51	36.55
5	19716	4.61	36.55
5	20272	4.71	36.55
5	20828	4.81	36.55
5	21384	4.91	36.55
5	21949	5.01	36.55
5	22506	5.11	36.55
5	23063	5.21	36.55
5	23620	5.31	36.55
5	24177	5.41	36.55
5	24734	5.51	36.55
5	25291	5.61	36.55
5	25848	5.71	36.55
5	26405	5.81	36.55
5	26962	5.91	36.55
5	27527	6.01	36.55
5	28084	6.11	36.55
5	28641	6.21	36.55
5	29198	6.31	36.55
5	29755	6.41	36.55
5	30312	6.51	36.55
5	30869	6.61	36.55
5	31426	6.71	36.55
5	31983	6.81	36.55
5	32540	6.91	36.55
5	33105	7.01	36.55
5	33662	7.11	36.55
5	34219	7.21	36.55
5	34776	7.31	36.55
5	35333	7.41	36.55
5	35890	7.51	36.55
5	36447	7.61	36.55
5	37004	7.71	36.55
5	37561	7.81	36.55
5	38118	7.91	36.55
5	38683	8.01	36.55
5	39240	8.11	36.55
5	39797	8.21	36.55
5	40354	8.31	36.55
5	40911	8.41	36.55
5	41468	8.51	36.55
5	42025	8.61	36.55
5	42582	8.71	36.55
5	43139	8.81	36.55
5	43696	8.91	36.55
5	44261	9.01	36.55
5	44818	9.11	36.55
5	45375	9.21	36.55
5	45932	9.31	36.55
5	46489	9.41	36.55
5	47046	9.51	36.55
5	47603	9.61	36.55
5	48160	9.71	36.55
5	48717	9.81	36.55
5	49274	9.91	36.55
5	49839	10.01	36.55
5	50396	10.11	36.55
5	50953	10.21	36.55
5	51510	10.31	36.55
5	52067	10.41	36.55
5	52624	10.51	36.55
5	53181	10.61	36.55
5	53738	10.71	36.55
5	54295	10.81	36.55
5	54852	10.91	36.55
5	55417	11.01	36.55
5	55974	11.11	36.55
5	56531	11.21	36.55
5	57088	11.31	36.55
5	57645	11.41	36.55
5	58202	11.51	36.55
5	58759	11.61	36.55
5	59316	11.71	36.55
5	59873	11.81	36.55
5	60430	11.91	36.55
5	60995	12.01	36.55
5	61552	12.11	36.55
5	62109	12.21	36.55
5	62666	12.31	36.55
5	63223	12.41	36.55
5	63780	12.51	36.55
5	64337	12.61	36.55
5	64894	12.71	36.55
5	65451	12.81	36.55
5	66008	12.91	36.55
5	66573	13.01	36.55
5	67130	13.11	36.55
5	67687	13.21	36.55
5	68244	13.31	36.55
5	68801	13.41	36.55
5	69358	13.51	36.55
5	69915	13.61	36.55
5	70472	13.71	36.55
5	71029	13.81	36.55
5	71586	13.91	36.55
5	72151	14.01	36.55
5	72708	14.11	36.55
5	73265	14.21	36.55
5	73822	14.31	36.55
5	74379	14.41	36.55
5	74936	14.51	36.55
5	75493	14.61	36.55
5	76050	14.71	36.55
5	76607	14.81	36.55
5	77164	14.91	36.55
5	77729	15.01	36.55
5	78286	15.11	36.55
5	78843	15.21	36.55
5	79400	15.31	36.55
5	79957	15.41	36.55
5	80514	15.51	36.55
5	81071	15.61	36.55
5	81628	15.71	36.55
5	82185	15.81	36.55
5	82742	15.91	36.55
5	83307	16.01	36.55
5	83864	16.11	36.55
5	84421	16.21	36.55
5	84978	16.31	36.55
5	85535	16.41	36.55
5	86092	16.51	36.55
5	86649	16.61	36.55
5	87206	16.71	36.55
5	87763	16.81	36.55
5	88320	16.91	36.55
5	88885	17.01	36.55
5	89442	17.11	36.55
5	89999	17.21	36.55
5	90556	17.31	36.55
5	91113	17.41	36.55
5	91670	17.51	36.55
5	92227	17.61	36.55
5	92784	17.71	36.55
5	93341	17.81	36.55
5	93898	17.91	36.55
5	94463	18.01	36.55
5	95020	18.11	36.55
5	95577	18.21	36.55
5	96134	18.31	36.55
5	96691	18.41	36.55
5	97248	18.51	36.55
5	97805	18.61	36.55
5	98362	18.71	36.55
5	98919	18.81	36.55
5	99476	18.91	36.55
5	100041	19.01	36.55
5	100598	19.11	36.55
5	101155	19.21	36.55
5	101712	19.31	36.55
5	102269	19.41	36.55
5	102826	19.51	36.55
5	103383	19.61	36.55
5	103940	19.71	36.55
5	104497	19.81	36.55
5	105054	19.91	36.55
5	105619	20.01	36.55
5	106176	20.11	36.55
5	106733	20.21	36.55
5	107290	20.31	36.55
5	107847	20.41	36.55
5	108404	20.51	36.55
5	108961	20.61	36.55
5	109518	20.71	36.55
5	110075	20.81	36.55
5	110632	20.91	36.55
5	111197	21.01	36.55
5	111754	21.11	36.55
5	112311	21.21	36.55
5	112868	21.31	36.55
5	113425	21.41	36.55
5	113982	21.51	36.55
5	114539	21.61	36.55
5	115096	21.71	36.55
5	115653	21.81	36.55
5	116210	21.91	36.55
5	116775	22.01	36.55
5	117332	22.11	36.55
5	117889	22.21	36.55
5	118446	22.31	36.55
5	119003	22.41	36.55
5	119560	22.51	36.55
5	120117	22.61	36.55
5	120674	22.71	36.55
5	121231	22.81	36.55
5	121788	22.91	36.55
5	122353	23.01	36.55
5	122910	23.11	36.55
5	123467	23.21	36.55
5	124024	23.31	36.55
5	124581	23.41	36.55
5	125138	23.51	36.55
5	125695	23.61	36.55
5	126252	23.71	36.55
5	126809	23.81	36.55
5	127366	23.91	36.55
5	127931	24.01	36.55
5	128488	24.11	36.55
5	129045	24.21	36.55
5	129602	24.31	36.55
5	130159	24.41	36.55
5	130716	24.51	36.55
5	131273	24.61	36.55
5	131830	24.71	36.55
5	132387	24.81	36.55
5	132944	24.91	36.55
5	133509	25.01	36.55
5	134066	25.11	36.55
5	134623	25.21	36.55
5	135180	25.31	36.55
5	135737	25.41	36.55
5	136294	25.51	36.55
5	136851	25.61	36.55
5	137408	25.71	36.55
5	137965	25.81	36.55
5	138522	25.91	36.55
5	139087	26.01	36.55
5	139644	26.11	36.55
5	140201	26.21	36.55
5	140758	26.31	36.55
5	141315	26.41	36.55
5	141872	26.51	36.55
5	142429	26.61	36.55
5	142986	26.71	36.55
5	143543	26.81	36.55
5	144100	26.91	36.55
5	144665	27.01	36.55
5	145222	27.11	36.55
5	145779	27.21	36.55
5	146336	27.31	36.55
5	146893	27.41	36.55
5	147450	27.51	36.55
5	148007	27.61	36.55
5	148564	27.71	36.55
5	149121	27.81	36.55
5	149678	27.91	36.55
5	150243	28.01	36.55
5	150800	28.11	36.55
5	151357	28.21	36.55
5	151914	28.31	36.55
5	152471	28.41	36.55
5	153028	28.51	36.55
5	153585	28.61	36.55
5	154142	28.71	36.55
5	154699	28.81	36.55
5	155256	28.91	36.55
5	155821	29.01	36.55
5	156378	29.11	36.55
5	156935	29.21	36.55
5	157492	29.31	36.55
5	158049	29.41	36.55
5	158606	29.51	36.55
5	159163	29.61	36.55
5	159720	29.71	36.55
5	160277	29.81	36.55
5	160834	29.91	36.55
5	161399	30.01	36.55
5	161956	30.11	36.55
5	162513	30.21	36.55
5	163070	30.31	36.55
5	163627	30.41	36.55
5	164184	30.51	36.55
5	164741	30.61	36.55
5	165298	30.71	36.55
5	165855	30.81	36.55
5	166412	30.91	36.55
5	166977	31.01	36.55
5	167534	31.11	36.55
5	168091	31.21	36.55
5	168648	31.31	36.55
5	169205	31.41	36.55
5	169762	31.51	36.55
5	170319	31.61	36.55
5	170876	31.71	36.55
5	171433	31.81	36.55
5	171990	31.91	36.55
5	172555	32.01	36.55
5	173112	32.11	36.55
5	173669	32.21	36.55
5	174226	32.31	36.55
5	174783	32.41	36.55
5	175340	32.51	36.55
5	175897	32.61	36.55
5	176454	32.71	36.55
5	177011	32.81	36.55
5	177568	32.91	36.55
5	178133	33.01	36.55
5	178690	33.11	36.55
5	179247	33.21	36.55
5	179804	33.31	36.55
5	180361	33.41	36.55
5	180918	33.51	36.55
5	181475	33.61	36.55
5	182032	33.71	36.55
5	182589	33.81	36.55
5	183146	33.91	36.55
5	183711	34.01	36.55
5	184268	34.11	36.55
5	184825	34.21	36.55
5	185382	34.31	36.55
5	185939	34.41	36.55
5	186496	34.51	36.55
5	187053	34.61	36.55
5	187610	34.71	36.55
5	188167	34.81	36.55
5	188724	34.91	36.55
5	189289	35.01	36.55
5	189846	35.11	36.55
5	190403	35.21	36.55
5	190960	35.31	36.55
5	191517	35.41	36.55
5	192074	35.51	36.55
5	192631	35.61	36.55
5	193188	35.71	36.55
5	193745	35.81	36.55
5	194302	35.91	36.55
5	194867	36.01	36.55
5	195424	36.11	36.55
5	195981	36.21	36.55
5	196538	36.31	36.55
5	197095	36.41	36.55
5	197652	36.51	36.55
5	198209	36.61	36.55
5	198766	36.71	36.55
5	199323	36.81	36.55
5	199880	36.91	36.55
5	200445	37.01	36.55
5	201002	37.11	36.55
5	201559	37.21	36.55
5	202116	37.31	36.55
4	232	1.11	152.66408882128
4	788	1.21	154.05297775167
4	1344	1.31	155.44186668071
4	1900	1.41	156.83075560791
4	2456	1.51	158.21964453292
4	3012	1.61	159.60853345548
4	3568	1.71	160.99742237544
4	4124	1.81	162.38631129269
4	4680	1.91	163.77520020723
4	5244	2.01	165.16408911906
4	5800	2.11	166.55297802828
4	6356	2.21	167.94186693499
4	6912	2.31	169.33075583931
4	7468	2.41	170.71964474139
4	8024	2.51	172.10853364142
4	8580	2.61	173.49742253954
4	9136	2.71	174.88631143595
4	9692	2.81	176.27520033081
4	10248	2.91	177.66408922429
4	10812	3.01	179.05297811656
4	11368	3.11	180.44186700778
4	11924	3.21	181.83075589809
4	12480	3.31	183.21964478764
4	13036	3.41	184.60853367654
4	13592	3.51	185.99742256491
4	14148	3.61	187.38631145286
4	14704	3.71	188.77520034048
4	15260	3.81	190.16408922785
4	15816	3.91	191.55297811504
4	16380	4.01	192.94186700212
4	16936	4.11	194.33075588914
4	17492	4.21	195.71964477614
4	18048	4.31	197.10853366316
4	18604	4.41	198.49742255023
4	19160	4.51	199.88631143738
4	19716	4.61	201.27520032461
4	20272	4.71	202.66408921196
4	20828	4.81	204.05297809941
4	21384	4.91	205.44186698699
4	21949	5.01	206.83075587468
4	22506	5.11	208.21964612778
4	23063	5.21	209.60876288271
4	23620	5.31	210.99887973114
4	24177	5.41	212.3912213007
4	24734	5.51	213.78733757511
4	25291	5.61	215.18896341679
4	25848	5.71	216.59778431024
4	26405	5.81	218.01520229587
4	26962	5.91	219.44236766697
4	27527	6.01	220.88022406467
4	28084	6.11	222.32954560336
4	28641	6.21	223.79096732647
4	29198	6.31	225.2650101908
4	29755	6.41	226.75210156238
4	30312	6.51	228.25259199853
4	30869	6.61	229.76673924915
4	31426	6.71	231.2944968813
4	31983	6.81	232.83533837845
4	32540	6.91	234.38827496425
4	33105	7.01	235.95189192591
4	33662	7.11	237.52439214892
4	34219	7.21	239.10364570734
4	34776	7.31	240.68724434182
4	35333	7.41	242.27256011539
4	35890	7.51	243.85688010082
4	36447	7.61	245.43770649174
4	37004	7.71	247.01297214284
4	37561	7.81	248.58098127498
4	38118	7.91	250.14034275864
4	38683	8.01	251.68991538305
4	39240	8.11	253.22876295793
4	39797	8.21	254.75611748115
4	40354	8.31	256.27134892348
4	40911	8.41	257.77394044152
4	41468	8.51	259.26346804364
4	42025	8.61	260.73958390906
4	42582	8.71	262.20200270357
4	43139	8.81	263.65049035375
4	43696	8.91	265.08485483785
4	44261	9.01	266.50493863117
4	44818	9.11	267.91061250859
4	45375	9.21	269.3017704605
4	45932	9.31	270.67832552209
4	46489	9.41	272.04020635193
4	47046	9.51	273.38735668801
4	47603	9.61	274.71997183071
4	48160	9.71	276.03891310135
4	48717	9.81	277.34567226233
4	49274	9.91	278.64226642669
4	49839	10.01	279.93113343395
4	50396	10.11	281.21502900093
4	50953	10.21	282.4969258869
4	51510	10.31	283.77975230578
4	52067	10.41	285.0660295667
4	52624	10.51	286.35783249554
4	53181	10.61	287.65686317216
4	53738	10.71	288.96451789488
4	54295	10.81	290.28194211466
4	54852	10.91	291.61007550025
4	55417	11.01	292.9496889073
4	55974	11.11	294.30141470595
4	56531	11.21	295.66577165995
4	57088	11.31	297.04318533627
4	57645	11.41	298.43400484805
4	58202	11.51	299.83851658966
4	58759	11.61	301.25695550423
4	59316	11.71	302.68951432697
4	59873	11.81	304.13635116786
4	60430	11.91	305.59758093278
4	60995	12.01	307.07299859194
4	61552	12.11	308.56175882938
4	62109	12.21	310.06243254375
4	62666	12.31	311.57309384444
4	63223	12.41	313.0914088427
4	63780	12.51	314.61472487492
4	64337	12.61	316.14015973292
4	64894	12.71	317.66482466755
4	65451	12.81	319.18617390438
4	66008	12.91	320.70210833867
4	66573	13.01	322.21090597338
4	67130	13.11	323.7111541712
4	67687	13.21	325.20169407749
4	68244	13.31	326.68157502784
4	68801	13.41	328.15001714629
4	69358	13.51	329.60638066295
4	69915	13.61	331.05014074366
4	70472	13.71	332.48086684161
4	71029	13.81	333.89820575846
4	71586	13.91	335.30186774856
4	72151	14.01	336.69161511954
4	72708	14.11	338.06725288089
4	73265	14.21	339.42862107247
4	73822	14.31	340.77558847123
4	74379	14.41	342.10804820965
4	74936	14.51	343.42606682557
4	75493	14.61	344.73025962503
4	76050	14.71	346.02187034262
4	76607	14.81	347.30268479571
4	77164	14.91	348.57493646849
4	77729	15.01	349.84121196306
4	78286	15.11	351.10435719779
4	78843	15.21	352.36731504644
4	79400	15.31	353.63279466222
4	79957	15.41	354.90303778089
4	80514	15.51	356.17988340655
4	81071	15.61	357.4648401631
4	81628	15.71	358.75914564759
4	82185	15.81	360.06381512065
4	82742	15.91	361.37968144962
4	83307	16.01	362.70742787579
4	83864	16.11	364.04761489502
4	84421	16.21	365.4007023091
4	84978	16.31	366.76706731568
4	85535	16.41	368.14701934818
4	86092	16.51	369.54081224981
4	86649	16.61	370.9486542604
4	87206	16.71	372.37071620913
4	87763	16.81	373.80713823545
4	88320	16.91	375.25803428804
4	88885	17.01	376.7233078629
4	89442	17.11	378.2022605898
4	89999	17.21	379.69357880745
4	90556	17.31	381.19542321906
4	91113	17.41	382.70552131256
4	91670	17.51	384.22126001338
4	92227	17.61	385.73977785411
4	92784	17.71	387.25814918968
4	93341	17.81	388.77372175591
4	93898	17.91	390.28430358097
4	94463	18.01	391.7880964845
4	95020	18.11	393.2836253323
4	95577	18.21	394.76968000051
4	96134	18.31	396.24526776611
4	96691	18.41	397.70957425045
4	97248	18.51	399.16193137938
4	97805	18.61	400.60179109941
4	98362	18.71	402.0287038158
4	98919	18.81	403.44230070427
4	99476	18.91	404.84227920043
4	100041	19.01	406.22839109612
4	100598	19.11	407.60043277418
4	101155	19.21	408.95823719763
4	101712	19.31	410.30166733796
4	102269	19.41	411.6306117028
4	102826	19.51	412.94515545806
4	103383	19.61	414.24596614071
4	103940	19.71	415.53433148495
4	104497	19.81	416.81207095047
4	105054	19.91	418.08144256393
4	105619	20.01	419.34504956456
4	106176	20.11	420.60574763062
4	106733	20.21	421.86646875408
4	107290	20.31	423.12988623106
4	107847	20.41	424.39821043258
4	108404	20.51	425.67325463272
4	108961	20.61	426.95650634782
4	109518	20.71	428.24918585937
4	110075	20.81	429.55229422319
4	110632	20.91	430.86665265375
4	111197	21.01	432.19293483295
4	111754	21.11	433.53169341456
4	112311	21.21	434.88338176718
4	112868	21.31	436.24837181097
4	113425	21.41	437.62696865
4	113982	21.51	439.01942257587
4	114539	21.61	440.42593891488
4	115096	21.71	441.84668610609
4	115653	21.81	443.28180232822
4	116210	21.91	444.73139998728
4	116775	22.01	446.19538979106
4	117332	22.11	447.67309277982
4	117889	22.21	449.16321159336
4	118446	22.31	450.6639194046
4	119003	22.41	452.17295280459
4	119560	22.51	453.68770489676
4	120117	22.61	455.20531784663
4	120674	22.71	456.72286200687
4	121231	22.81	458.23767187244
4	121788	22.91	459.74754388853
4	122353	23.01	461.25067037268
4	122910	23.11	462.74556839568
4	123467	23.21	464.23102143905
4	124024	23.31	465.70603153395
4	124581	23.41	467.16977999832
4	125138	23.51	468.62159522773
4	125695	23.61	470.06092627262
4	126252	23.71	471.48732116247
4	126809	23.81	472.90040912402
4	127366	23.91	474.29988599407
4	127931	24.01	475.68550225283
4	128488	24.11	477.05705320719
4	129045	24.21	478.4143709375
4	129602	24.31	479.75731769115
4	130159	24.41	481.08578140059
4	130716	24.51	482.39984982638
4	131273	24.61	483.70019768916
4	131830	24.71	484.98811877681
4	132387	24.81	486.26543718224
4	132944	24.91	487.53441431689
4	133509	25.01	488.79765571992
4	134066	25.11	490.05801842551
4	134623	25.21	491.31843295086
4	135180	25.31	492.58156769206
4	135737	25.41	493.8496287332
4	136294	25.51	495.12442583163
4	136851	25.61	496.40744361871
4	137408	25.71	497.69990000923
4	137965	25.81	499.00279411756
4	138522	25.91	500.31694556545
4	139087	26.01	501.64302672819
4	139644	26.11	502.98158918775
4	140201	26.21	504.33308543343
4	140758	26.31	505.69788666406
4	141315	26.41	507.07629739199
4	141872	26.51	508.46856742338
4	142429	26.61	509.87490168631
4	142986	26.71	511.29546829318
4	143543	26.81	512.73040515469
4	144100	26.91	514.179824464
4	144665	27.01	515.64363789214
4	145222	27.11	517.12116914532
4	145779	27.21	518.61112310997
4	146336	27.31	520.1116746785
4	146893	27.41	521.62056169821
4	147450	27.51	523.13517812618
4	148007	27.61	524.65266663124
4	148564	27.71	526.170097019
4	149121	27.81	527.68480196623
4	149678	27.91	529.19457632747
4	150243	28.01	530.69761111537
4	150800	28.11	532.19242233023
4	151357	28.21	533.67779257544
4	151914	28.31	535.15272316173
4	152471	28.41	536.61639481608
4	153028	28.51	538.06813544925
4	153585	28.61	539.50739371398
4	154142	28.71	540.93371731348
4	154699	28.81	542.34673520685
4	155256	28.91	543.7461430113
4	155821	29.01	545.13169102697
4	156378	29.11	546.50317441295
4	156935	29.21	547.86042512838
4	157492	29.31	549.20330532123
4	158049	29.41	550.53170284494
4	158606	29.51	551.84570581757
4	159163	29.61	553.14598994908
4	159720	29.71	554.43384986109
4	160277	29.81	555.71111028462
4	160834	29.91	556.98003309731
4	161399	30.01	558.24322415512
4	161956	30.11	559.50354067901
4	162513	30.21	560.76391298316
4	163070	30.31	562.02700878894
4	163627	30.41	563.29503359015
4	164184	30.51	564.56979665989
4	164741	30.61	565.85278223225
4	165298	30.71	567.14520789617
4	165855	30.81	568.44807249864
4	166412	30.91	569.76219544212
4	166977	31.01	571.088248922
4	167534	31.11	572.42678437263
4	168091	31.21	573.77825416225
4	168648	31.31	575.14302939038
4	169205	31.41	576.52141448786
4	169762	31.51	577.91365919404
4	170319	31.61	579.31996838214
4	170876	31.71	580.74051011958
4	171433	31.81	582.17542228017
4	171990	31.91	583.62481702776
4	172555	32.01	585.08860616603
4	173112	32.11	586.56611376834
4	173669	32.21	588.05604503052
4	174226	32.31	589.5565750818
4	174783	32.41	591.06544194246
4	175340	32.51	592.58003968715
4	175897	32.61	594.09751105405
4	176454	32.71	595.61492577338
4	177011	32.81	597.12961627156
4	177568	32.91	598.63937718405
4	178133	33.01	600.14239934379
4	178690	33.11	601.63719860367
4	179247	33.21	603.12255744613
4	179804	33.31	604.59747708271
4	180361	33.41	606.06113815898
4	180918	33.51	607.51286851896
4	181475	33.61	608.95211676059
4	182032	33.71	610.37843054216
4	182589	33.81	611.79143878592
4	183146	33.91	613.19083707884
4	183711	34.01	614.57637569623
4	184268	34.11	615.94784977686
4	184825	34.21	617.30509126317
4	185382	34.31	618.64796228943
4	185939	34.41	619.97635069821
4	186496	34.51	621.29034465679
4	187053	34.61	622.59062001138
4	187610	34.71	623.87847149844
4	188167	34.81	625.15572393685
4	188724	34.91	626.42463926845
4	189289	35.01	627.68782339284
4	189846	35.11	628.94813355669
4	190403	35.21	630.20850004625
4	190960	35.31	631.47159048994
4	191517	35.41	632.73961030028
4	192074	35.51	634.01436868366
4	192631	35.61	635.29734981949
4	193188	35.71	636.58977125181
4	193745	35.81	637.89263179081
4	194302	35.91	639.20675080873
4	194867	36.01	640.53280047619
4	195424	36.11	641.87133220722
4	195981	36.21	643.22279835338
4	196538	36.31	644.58757000051
4	197095	36.41	645.96595156823
4	197652	36.51	647.35819278668
4	198209	36.61	648.76449852153
4	198766	36.71	650.18503683402
4	199323	36.81	651.61994559286
4	199880	36.91	653.06933695787
4	200445	37.01	654.533122751
4	201002	37.11	656.01062709617
4	201559	37.21	657.50055523181
4	202116	37.31	659.00108231978
3	232	1.11	13.888889309806
3	788	1.21	13.888889299984
3	1344	1.31	13.888889284553
3	1900	1.41	13.888889264797
3	2456	1.51	13.888889241849
3	3012	1.61	13.888889216692
3	3568	1.71	13.888889190176
3	4124	1.81	13.888889163019
3	4680	1.91	13.888889135825
3	5244	2.01	13.888889109087
3	5800	2.11	13.888889083203
3	6356	2.21	13.888889058484
3	6912	2.31	13.888889035164
3	7468	2.41	13.888889013409
3	8024	2.51	13.88888899333
3	8580	2.61	13.888888974985
3	9136	2.71	13.888888958391
3	9692	2.81	13.888888943532
3	10248	2.91	13.888888930362
3	10812	3.01	13.888888918814
3	11368	3.11	13.888888908804
3	11924	3.21	13.888888900236
3	12480	3.31	13.888888893003
3	13036	3.41	13.888888886995
3	13592	3.51	13.888888882101
3	14148	3.61	13.888888878208
3	14704	3.71	13.888888875206
3	15260	3.81	13.888888872989
3	15816	3.91	13.888888871455
3	16380	4.01	13.888888870509
3	16936	4.11	13.888888870063
3	17492	4.21	13.888888870035
3	18048	4.31	13.88888887035
3	18604	4.41	13.888888870941
3	19160	4.51	13.888888871748
3	19716	4.61	13.888888872717
3	20272	4.71	13.888888873802
3	20828	4.81	13.888888874963
3	21384	4.91	13.888888876165
3	21949	5.01	13.888888877379
3	22506	5.11	13.88895714287
3	23063	5.21	13.8931707169
3	23620	5.31	13.906886981158
3	24177	5.41	13.934167403487
3	24734	5.51	13.977833057683
3	25291	5.61	14.039174898244
3	25848	5.71	14.116438827352
3	26405	5.81	14.206769915256
3	26962	5.91	14.307820624663
3	27527	6.01	14.417665157344
3	28084	6.11	14.534723687999
3	28641	6.21	14.657700209627
3	29198	6.31	14.785531545087
3	29755	6.41	14.917345518821
3	30312	6.51	15.052425059448
3	30869	6.61	15.189500093972
3	31426	6.71	15.324463010101
3	31983	6.81	15.452496243768
3	32540	6.91	15.569092845265
3	33105	7.01	15.670136008044
3	33662	7.11	15.751967163808
3	34219	7.21	15.811442461837
3	34776	7.31	15.845977552212
3	35333	7.41	15.853603639796
3	35890	7.51	15.834314677718
3	36447	7.61	15.791543255453
3	37004	7.71	15.729508036896
3	37561	7.81	15.651669795801
3	38118	7.91	15.560867572035
3	38683	8.01	15.459430367125
3	39240	8.11	15.349268773515
3	39797	8.21	15.231950142466
3	40354	8.31	15.108760247923
3	40911	8.41	14.980753872353
3	41468	8.51	14.848796304763
3	42025	8.61	14.713597383517
3	42582	8.71	14.575739423308
3	43139	8.81	14.435700125008
3	43696	8.91	14.293871369713
3	44261	9.01	14.150574636415
3	44818	9.11	14.006073649857
3	45375	9.21	13.860584756185
3	45932	9.31	13.714285434593
3	46489	9.41	13.567321279832
3	47046	9.51	13.419909418317
3	47603	9.61	13.276568052228
3	48160	9.71	13.144199549998
3	48717	9.81	13.028740637906
3	49274	9.91	12.935077207518
3	49839	10.01	12.867053163966
3	50396	10.11	12.827492798447
3	50953	10.21	12.818184012284
3	51510	10.31	12.836987312871
3	52067	10.41	12.879360323559
3	52624	10.51	12.941068705856
3	53181	10.61	13.01863882738
3	53738	10.71	13.109221099712
3	54295	10.81	13.210477867837
3	54852	10.91	13.320491440438
3	55417	11.01	13.437688642703
3	55974	11.11	13.56077892335
3	56531	11.21	13.688703580829
3	57088	11.31	13.820594111122
3	57645	11.41	13.955738038437
3	58202	11.51	14.093550884467
3	58759	11.61	14.233553173427
3	59316	11.71	14.375351568173
3	59873	11.81	14.518623395246
3	60430	11.91	14.66269730263
3	60995	12.01	14.802538408274
3	61552	12.11	14.931758497807
3	62109	12.21	15.044820373205
3	62666	12.31	15.137065146099
3	63223	12.41	15.204725281664
3	63780	12.51	15.244924342721
3	64337	12.61	15.255706566207
3	64894	12.71	15.238438484058
3	65451	12.81	15.197324887205
3	66008	12.91	15.136649662907
3	66573	13.01	15.05992709079
3	67130	13.11	14.970040104174
3	67687	13.21	14.869353712503
3	68244	13.31	14.759808047257
3	68801	13.41	14.642994691995
3	69358	13.51	14.520219299584
3	69915	13.61	14.392552960135
3	70472	13.71	14.260874340597
3	71029	13.81	14.125904253911
3	71586	13.91	13.988234017746
3	72151	14.01	13.848348718545
3	72708	14.11	13.706646296149
3	73265	14.21	13.56345319983
3	73822	14.31	13.419037231692
3	74379	14.41	13.273657135565
3	74936	14.51	13.130441982788
3	75493	14.61	12.995670307401
3	76050	14.71	12.875370078417
3	76607	14.81	12.774633040977
3	77164	14.91	12.697604313193
3	77729	15.01	12.647485799739
3	78286	15.11	12.626530819682
3	78843	15.21	12.634779968798
3	79400	15.31	12.66849489927
3	79957	15.41	12.723100640181
3	80514	15.51	12.79484412192
3	81071	15.61	12.88064652021
3	81628	15.71	12.977982126792
3	82185	15.81	13.084778981187
3	82742	15.91	13.199337354141
3	83307	16.01	13.320262875649
3	83864	16.11	13.446411676648
3	84421	16.21	13.576845386097
3	84978	16.31	13.71079421291
3	85535	16.41	13.847626660274
3	86092	16.51	13.986824680856
3	86649	16.61	14.127963295405
3	87206	16.71	14.270693872916
3	87763	16.81	14.414730414535
3	88320	16.91	14.559787728906
3	88885	17.01	14.702082559026
3	89442	17.11	14.835117319103
3	89999	17.21	14.95304189545
3	90556	17.31	15.050921902539
3	91113	17.41	15.124749945874
3	91670	17.51	15.171443265846
3	92227	17.61	15.188857753955
3	92784	17.71	15.177461901473
3	93341	17.81	15.141165578244
3	93898	17.91	15.084442196173
3	94463	18.01	15.010961511109
3	95020	18.11	14.923734001024
3	95577	18.21	14.825229306406
3	96134	18.31	14.717473392626
3	96691	18.41	14.602128256938
3	97248	18.51	14.480557315958
3	97805	18.61	14.353879046192
3	98362	18.71	14.223010987939
3	98919	18.81	14.088705843826
3	99476	18.91	13.951581092168
3	100041	19.01	13.812143280257
3	100598	19.11	13.670807953298
3	101155	19.21	13.527916003097
3	101712	19.31	13.383747079665
3	102269	19.41	13.23857652977
3	102826	19.51	13.095945007457
3	103383	19.61	12.962270845178
3	103940	19.71	12.843470007216
3	104497	19.81	12.744535147797
3	105054	19.91	12.669524665226
3	105619	20.01	12.621565448378
3	106176	20.11	12.602842059212
3	106733	20.21	12.613074483492
3	107290	20.31	12.648416390373
3	107847	20.41	12.704356818615
3	108404	20.51	12.777195208837
3	108961	20.61	12.863895813439
3	109518	20.71	12.961968262042
3	110075	20.81	13.069369583537
3	110632	20.91	13.184423830048
3	111197	21.01	13.305756140585
3	111754	21.11	13.432238650273
3	112311	21.21	13.562946117079
3	112868	21.31	13.697119520272
3	113425	21.41	13.834136198489
3	113982	21.51	13.973485352538
3	114539	21.61	14.114747949169
3	115096	21.71	14.25758023517
3	115653	21.81	14.401700213177
3	116210	21.91	14.546829114103
3	116775	22.01	14.689336934087
3	117332	22.11	14.822775023755
3	117889	22.21	14.941251840502
3	118446	22.31	15.039796341815
3	119003	22.41	15.114369048335
3	119560	22.51	15.161859441787
3	120117	22.61	15.180097968285
3	120674	22.71	15.169434538294
3	121231	22.81	15.13373905661
3	121788	22.91	15.07750857388
3	122353	23.01	15.004432237952
3	122910	23.11	14.917536434993
3	123467	23.21	14.819303855751
3	124024	23.31	14.711771171359
3	124581	23.41	14.596609161518
3	125138	23.51	14.475188447516
3	125695	23.61	14.348633416197
3	126252	23.71	14.217866456394
3	126809	23.81	14.083644248221
3	127366	23.91	13.946587532923
3	127931	24.01	13.807205534522
3	128488	24.11	13.665915994083
3	129045	24.21	13.523061604774
3	129602	24.31	13.378923494356
3	130159	24.41	13.233779163163
3	130716	24.51	13.091225460604
3	131273	24.61	12.957699786749
3	131830	24.71	12.839102746868
3	132387	24.81	12.74041340342
3	132944	24.91	12.665678256479
3	133509	25.01	12.618013899389
3	134066	25.11	12.599595455496
3	134623	25.21	12.61009895213
3	135180	25.31	12.645663232756
3	135737	25.41	12.701786084922
3	136294	25.51	12.774774126299
3	136851	25.61	12.861597496972
3	137408	25.71	12.959770656513
3	137965	25.81	13.067254596054
3	138522	25.91	13.182376618139
3	139087	26.01	13.303764528253
3	139644	26.11	13.43029264896
3	140201	26.21	13.561037532686
3	140758	26.31	13.695241630788
3	141315	26.41	13.83228348952
3	141872	26.51	13.971653300362
3	142429	26.61	14.112932842758
3	142986	26.71	14.255779030189
3	143543	26.81	14.39991041221
3	144100	26.91	14.545049017674
3	144665	27.01	14.687585693517
3	145222	27.11	14.821078865042
3	145779	27.21	14.939631290159
3	146336	27.31	15.03826688263
3	146893	27.41	15.112941747789
3	147450	27.51	15.160541546767
3	148007	27.61	15.17889322306
3	148564	27.71	15.168330374919
3	149121	27.81	15.132717405387
3	149678	27.91	15.076554611359
3	150243	28.01	15.003533803743
3	150800	28.11	14.91668355334
3	151357	28.21	14.818488343061
3	151914	28.31	14.710986314233
3	152471	28.41	14.595849452632
3	153028	28.51	14.474449368947
3	153585	28.61	14.347911261671
3	154142	28.71	14.21715818548
3	154699	28.81	14.082947366705
3	155256	28.91	13.945899994678
3	155821	29.01	13.806525661016
3	156378	29.11	13.665242408331
3	156935	29.21	13.522393177171
3	157492	29.31	13.378259298231
3	158049	29.41	13.23311856794
3	158606	29.51	13.090575573438
3	159163	29.61	12.957070340203
3	159720	29.71	12.838501358414
3	160277	29.81	12.739845818791
3	160834	29.91	12.665148582879
3	161399	30.01	12.617524826186
3	161956	30.11	12.59914837223
3	162513	30.21	12.609689194843
3	163070	30.31	12.645284095771
3	163627	30.41	12.701432067251
3	164184	30.51	12.774440715214
3	164741	30.61	12.861280990466
3	165298	30.71	12.959468017648
3	165855	30.81	13.066963333485
3	166412	30.91	13.182094688096
3	166977	31.01	13.303490254132
3	167534	31.11	13.43002465536
3	168091	31.21	13.560774691303
3	168648	31.31	13.694983016015
3	169205	31.41	13.832028342041
3	169762	31.51	13.971400997271
3	170319	31.61	14.112682873057
3	170876	31.71	14.255530974679
3	171433	31.81	14.399663927005
3	171990	31.91	14.544803868766
3	172555	32.01	14.687344518393
3	173112	32.11	14.82084527549
3	173669	32.21	14.939408113045
3	174226	32.31	15.038056250216
3	174783	32.41	15.112745184271
3	175340	32.51	15.16036005018
3	175897	32.61	15.178727309066
3	176454	32.71	15.16817831271
3	177011	32.81	15.132576706465
3	177568	32.91	15.07642323429
3	178133	33.01	15.003410073841
3	178690	33.11	14.91656609678
3	179247	33.21	14.818376032824
3	179804	33.31	14.710878225775
3	180361	33.41	14.595744827503
3	180918	33.51	14.474347584953
3	181475	33.61	14.347811808398
3	182032	33.71	14.21706064421
3	182589	33.81	14.082851393943
3	183146	33.91	13.94580530864
3	183711	34.01	13.806432030538
3	184268	34.11	13.665149643781
3	184825	34.21	13.522301122983
3	185382	34.31	13.378167826789
3	185939	34.41	13.233027592401
3	186496	34.51	13.090486072583
3	187053	34.61	12.956983654378
3	187610	34.71	12.838418536677
3	188167	34.81	12.739767652433
3	188724	34.91	12.665075637532
3	189289	35.01	12.617457472225
3	189846	35.11	12.59908680102
3	190403	35.21	12.609632764073
3	190960	35.31	12.645231881954
3	191517	35.41	12.701383312803
3	192074	35.51	12.774394798654
3	192631	35.61	12.861237401962
3	193188	35.71	12.959426338962
3	193745	35.81	13.066923221514
3	194302	35.91	13.182055861377
3	194867	36.01	13.303452481767
3	195424	36.11	13.429987747933
3	195981	36.21	13.560738493426
3	196538	36.31	13.694947400217
3	197095	36.41	13.83199320375
3	197652	36.51	13.971366250702
3	198209	36.61	14.112648447836
3	198766	36.71	14.255496813076
3	199323	36.81	14.39962998166
3	199880	36.91	14.544770107452
3	200445	37.01	14.68731130434
3	201002	37.11	14.820813106103
3	201559	37.21	14.939377377634
3	202116	37.31	15.038027242431
1	232	1.11	0
1	788	1.21	0
1	1344	1.31	0
1	1900	1.41	0
1	2456	1.51	0
1	3012	1.61	0
1	3568	1.71	0
1	4124	1.81	0
1	4680	1.91	0
1	5244	2.01	0
1	5800	2.11	0
1	6356	2.21	0
1	6912	2.31	0
1	7468	2.41	0
1	8024	2.51	0
1	8580	2.61	0
1	9136	2.71	0
1	9692	2.81	0
1	10248	2.91	0
1	10812	3.01	0
1	11368	3.11	0
1	11924	3.21	0
1	12480	3.31	0
1	13036	3.41	0
1	13592	3.51	0
1	14148	3.61	0
1	14704	3.71	0
1	15260	3.81	0
1	15816	3.91	0
1	16380	4.01	0
1	16936	4.11	0
1	17492	4.21	0
1	18048	4.31	0
1	18604	4.41	0
1	19160	4.51	0
1	19716	4.61	0
1	20272	4.71	0
1	20828	4.81	0
1	21384	4.91	0
1	21949	5.01	0
1	22506	5.11	0
1	23063	5.21	0
1	23620	5.31	0
1	24177	5.41	0
1	24734	5.51	0
1	25291	5.61	0
1	25848	5.71	0
1	26405	5.81	0
1	26962	5.91	0
1	27527	6.01	0
1	28084	6.11	0
1	28641	6.21	0
1	29198	6.31	0
1	29755	6.41	0
1	30312	6.51	0
1	30869	6.61	0
1	31426	6.71	0
1	31983	6.81	0
1	32540	6.91	0
1	33105	7.01	0
1	33662	7.11	0
1	34219	7.21	0
1	34776	7.31	0
1	35333	7.41	0
1	35890	7.51	0
1	36447	7.61	0
1	37004	7.71	0
1	37561	7.81	0
1	38118	7.91	0
1	38683	8.01	0
1	39240	8.11	0
1	39797	8.21	0
1	40354	8.31	0
1	40911	8.41	0
1	41468	8.51	0
1	42025	8.61	0
1	42582	8.71	0
1	43139	8.81	0
1	43696	8.91	0
1	44261	9.01	0
1	44818	9.11	0
1	45375	9.21	0
1	45932	9.31	0
1	46489	9.41	0
1	47046	9.51	0
1	47603	9.61	0
1	48160	9.71	0
1	48717	9.81	0
1	49274	9.91	0
1	49839	10.01	0
1	50396	10.11	0
1	50953	10.21	0
1	51510	10.31	0
1	52067	10.41	0
1	52624	10.51	0
1	53181	10.61	0
1	53738	10.71	0
1	54295	10.81	0
1	54852	10.91	0
1	55417	11.01	0
1	55974	11.11	0
1	56531	11.21	0
1	57088	11.31	0
1	57645	11.41	0
1	58202	11.51	0
1	58759	11.61	0
1	59316	11.71	0
1	59873	11.81	0
1	60430	11.91	0
1	60995	12.01	0
1	61552	12.11	0
1	62109	12.21	0
1	62666	12.31	0
1	63223	12.41	0
1	63780	12.51	0
1	64337	12.61	0
1	64894	12.71	0
1	65451	12.81	0
1	66008	12.91	0
1	66573	13.01	0
1	67130	13.11	0
1	67687	13.21	0
1	68244	13.31	0
1	68801	13.41	0
1	69358	13.51	0
1	69915	13.61	0
1	70472	13.71	0
1	71029	13.81	0
1	71586	13.91	0
1	72151	14.01	0
1	72708	14.11	0
1	73265	14.21	0
1	73822	14.31	0
1	74379	14.41	0
1	74936	14.51	0
1	75493	14.61	0
1	76050	14.71	0
1	76607	14.81	0
1	77164	14.91	0
1	77729	15.01	0
1	78286	15.11	0
1	78843	15.21	0
1	79400	15.31	0
1	79957	15.41	0
1	80514	15.51	0
1	81071	15.61	0
1	81628	15.71	0
1	82185	15.81	0
1	82742	15.91	0
1	83307	16.01	0
1	83864	16.11	0
1	84421	16.21	0
1	84978	16.31	0
1	85535	16.41	0
1	86092	16.51	0
1	86649	16.61	0
1	87206	16.71	0
1	87763	16.81	0
1	88320	16.91	0
1	88885	17.01	0
1	89442	17.11	0
1	89999	17.21	0
1	90556	17.31	0
1	91113	17.41	0
1	91670	17.51	0
1	92227	17.61	0
1	92784	17.71	0
1	93341	17.81	0
1	93898	17.91	0
1	94463	18.01	0
1	95020	18.11	0
1	95577	18.21	0
1	96134	18.31	0
1	96691	18.41	0
1	97248	18.51	0
1	97805	18.61	0
1	98362	18.71	0
1	98919	18.81	0
1	99476	18.91	0
1	100041	19.01	0
1	100598	19.11	0
1	101155	19.21	0
1	101712	19.31	0
1	102269	19.41	0
1	102826	19.51	0
1	103383	19.61	0
1	103940	19.71	0
1	104497	19.81	0
1	105054	19.91	0
1	105619	20.01	0
1	106176	20.11	0
1	106733	20.21	0
1	107290	20.31	0
1	107847	20.41	0
1	108404	20.51	0
1	108961	20.61	0
1	109518	20.71	0
1	110075	20.81	0
1	110632	20.91	0
1	111197	21.01	0
1	111754	21.11	0
1	112311	21.21	0
1	112868	21.31	0
1	113425	21.41	0
1	113982	21.51	0
1	114539	21.61	0
1	115096	21.71	0
1	115653	21.81	0
1	116210	21.91	0
1	116775	22.01	0
1	117332	22.11	0
1	117889	22.21	0
1	118446	22.31	0
1	119003	22.41	0
1	119560	22.51	0
1	120117	22.61	0
1	120674	22.71	0
1	121231	22.81	0
1	121788	22.91	0
1	122353	23.01	0
1	122910	23.11	0
1	123467	23.21	0
1	124024	23.31	0
1	124581	23.41	0
1	125138	23.51	0
1	125695	23.61	0
1	126252	23.71	0
1	126809	23.81	0
1	127366	23.91	0
1	127931	24.01	0
1	128488	24.11	0
1	129045	24.21	0
1	129602	24.31	0
1	130159	24.41	0
1	130716	24.51	0
1	131273	24.61	0
1	131830	24.71	0
1	132387	24.81	0
1	132944	24.91	0
1	133509	25.01	0
1	134066	25.11	0
1	134623	25.21	0
1	135180	25.31	0
1	135737	25.41	0
1	136294	25.51	0
1	136851	25.61	0
1	137408	25.71	0
1	137965	25.81	0
1	138522	25.91	0
1	139087	26.01	0
1	139644	26.11	0
1	140201	26.21	0
1	140758	26.31	0
1	141315	26.41	0
1	141872	26.51	0
1	142429	26.61	0
1	142986	26.71	0
1	143543	26.81	0
1	144100	26.91	0
1	144665	27.01	0
1	145222	27.11	0
1	145779	27.21	0
1	146336	27.31	0
1	146893	27.41	0
1	147450	27.51	0
1	148007	27.61	0
1	148564	27.71	0
1	149121	27.81	0
1	149678	27.91	0
1	150243	28.01	0
1	150800	28.11	0
1	151357	28.21	0
1	151914	28.31	0
1	152471	28.41	0
1	153028	28.51	0
1	153585	28.61	0
1	154142	28.71	0
1	154699	28.81	0
1	155256	28.91	0
1	155821	29.01	0
1	156378	29.11	0
1	156935	29.21	0
1	157492	29.31	0
1	158049	29.41	0
1	158606	29.51	0
1	159163	29.61	0
1	159720	29.71	0
1	160277	29.81	0
1	160834	29.91	0
1	161399	30.01	0
1	161956	30.11	0
1	162513	30.21	0
1	163070	30.31	0
1	163627	30.41	0
1	164184	30.51	0
1	164741	30.61	0
1	165298	30.71	0
1	165855	30.81	0
1	166412	30.91	0
1	166977	31.01	0
1	167534	31.11	0
1	168091	31.21	0
1	168648	31.31	0
1	169205	31.41	0
1	169762	31.51	0
1	170319	31.61	0
1	170876	31.71	0
1	171433	31.81	0
1	171990	31.91	0
1	172555	32.01	0
1	173112	32.11	0
1	173669	32.21	0
1	174226	32.31	0
1	174783	32.41	0
1	175340	32.51	0
1	175897	32.61	0
1	176454	32.71	0
1	177011	32.81	0
1	177568	32.91	0
1	178133	33.01	0
1	178690	33.11	0
1	179247	33.21	0
1	179804	33.31	0
1	180361	33.41	0
1	180918	33.51	0
1	181475	33.61	0
1	182032	33.71	0
1	182589	33.81	0
1	183146	33.91	0
1	183711	34.01	0
1	184268	34.11	0
1	184825	34.21	0
1	185382	34.31	0
1	185939	34.41	0
1	186496	34.51	0
1	187053	34.61	0
1	187610	34.71	0
1	188167	34.81	0
1	188724	34.91	0
1	189289	35.01	0
1	189846	35.11	0
1	190403	35.21	0
1	190960	35.31	0
1	191517	35.41	0
1	192074	35.51	0
1	192631	35.61	0
1	193188	35.71	0
1	193745	35.81	0
1	194302	35.91	0
1	194867	36.01	0
1	195424	36.11	0
1	195981	36.21	0
1	196538	36.31	0
1	197095	36.41	0
1	197652	36.51	0
1	198209	36.61	0
1	198766	36.71	0
1	199323	36.81	0
1	199880	36.91	0
1	200445	37.01	0
1	201002	37.11	0
1	201559	37.21	0
1	202116	37.31	0
0	232	1.11	-1
0	788	1.21	-1
0	1344	1.31	-1
0	1900	1.41	-1
0	2456	1.51	-1
0	3012	1.61	-1
0	3568	1.71	-1
0	4124	1.81	-1
0	4680	1.91	-1
0	5244	2.01	-1
0	5800	2.11	-1
0	6356	2.21	-1
0	6912	2.31	-1
0	7468	2.41	-1
0	8024	2.51	-1
0	8580	2.61	-1
0	9136	2.71	-1
0	9692	2.81	-1
0	10248	2.91	-1
0	10812	3.01	-1
0	11368	3.11	-1
0	11924	3.21	-1
0	12480	3.31	-1
0	13036	3.41	-1
0	13592	3.51	-1
0	14148	3.61	-1
0	14704	3.71	-1
0	15260	3.81	-1
0	15816	3.91	-1
0	16380	4.01	-1
0	16936	4.11	-1
0	17492	4.21	-1
0	18048	4.31	-1
0	18604	4.41	-1
0	19160	4.51	-1
0	19716	4.61	-1
0	20272	4.71	-1
0	20828	4.81	-1
0	21384	4.91	-1
0	21949	5.01	-1
0	22506	5.11	-1
0	23063	5.21	-1
0	23620	5.31	-1
0	24177	5.41	-1
0	24734	5.51	-1
0	25291	5.61	-1
0	25848	5.71	-1
0	26405	5.81	-1
0	26962	5.91	-1
0	27527	6.01	-1
0	28084	6.11	-1
0	28641	6.21	-1
0	29198	6.31	-1
0	29755	6.41	-1
0	30312	6.51	-1
0	30869	6.61	-1
0	31426	6.71	-1
0	31983	6.81	-1
0	32540	6.91	-1
0	33105	7.01	-1
0	33662	7.11	-1
0	34219	7.21	-1
0	34776	7.31	-1
0	35333	7.41	-1
0	35890	7.51	-1
0	36447	7.61	-1
0	37004	7.71	-1
0	37561	7.81	-1
0	38118	7.91	-1
0	38683	8.01	-1
0	39240	8.11	-1
0	39797	8.21	-1
0	40354	8.31	-1
0	40911	8.41	-1
0	41468	8.51	-1
0	42025	8.61	-1
0	42582	8.71	-1
0	43139	8.81	-1
0	43696	8.91	-1
0	44261	9.01	-1
0	44818	9.11	-1
0	45375	9.21	-1
0	45932	9.31	-1
0	46489	9.41	-1
0	47046	9.51	-1
0	47603	9.61	-1
0	48160	9.71	-1
0	48717	9.81	-1
0	49274	9.91	-1
0	49839	10.01	-1
0	50396	10.11	-1
0	50953	10.21	-1
0	51510	10.31	-1
0	52067	10.41	-1
0	52624	10.51	-1
0	53181	10.61	-1
0	53738	10.71	-1
0	54295	10.81	-1
0	54852	10.91	-1
0	55417	11.01	-1
0	55974	11.11	-1
0	56531	11.21	-1
0	57088	11.31	-1
0	57645	11.41	-1
0	58202	11.51	-1
0	58759	11.61	-1
0	59316	11.71	-1
0	59873	11.81	-1
0	60430	11.91	-1
0	60995	12.01	-1
0	61552	12.11	-1
0	62109	12.21	-1
0	62666	12.31	-1
0	63223	12.41	-1
0	63780	12.51	-1
0	64337	12.61	-1
0	64894	12.71	-1
0	65451	12.81	-1
0	66008	12.91	-1
0	66573	13.01	-1
0	67130	13.11	-1
0	67687	13.21	-1
0	68244	13.31	-1
0	68801	13.41	-1
0	69358	13.51	-1
0	69915	13.61	-1
0	70472	13.71	-1
0	71029	13.81	-1
0	71586	13.91	-1
0	72151	14.01	-1
0	72708	14.11	-1
0	73265	14.21	-1
0	73822	14.31	-1
0	74379	14.41	-1
0	74936	14.51	-1
0	75493	14.61	-1
0	76050	14.71	-1
0	76607	14.81	-1
0	77164	14.91	-1
0	77729	15.01	-1
0	78286	15.11	-1
0	78843	15.21	-1
0	79400	15.31	-1
0	79957	15.41	-1
0	80514	15.51	-1
0	81071	15.61	-1
0	81628	15.71	-1
0	82185	15.81	-1
0	82742	15.91	-1
0	83307	16.01	-1
0	83864	16.11	-1
0	84421	16.21	-1
0	84978	16.31	-1
0	85535	16.41	-1
0	86092	16.51	-1
0	86649	16.61	-1
0	87206	16.71	-1
0	87763	16.81	-1
0	88320	16.91	-1
0	88885	17.01	-1
0	89442	17.11	-1
0	89999	17.21	-1
0	90556	17.31	-1
0	91113	17.41	-1
0	91670	17.51	-1
0	92227	17.61	-1
0	92784	17.71	-1
0	93341	17.81	-1
0	93898	17.91	-1
0	94463	18.01	-1
0	95020	18.11	-1
0	95577	18.21	-1
0	96134	18.31	-1
0	96691	18.41	-1
0	97248	18.51	-1
0	97805	18.61	-1
0	98362	18.71	-1
0	98919	18.81	-1
0	99476	18.91	-1
0	100041	19.01	-1
0	100598	19.11	-1
0	101155	19.21	-1
0	101712	19.31	-1
0	102269	19.41	-1
0	102826	19.51	-1
0	103383	19.61	-1
0	103940	19.71	-1
0	104497	19.81	-1
0	105054	19.91	-1
0	105619	20.01	-1
0	106176	20.11	-1
0	106733	20.21	-1
0	107290	20.31	-1
0	107847	20.41	-1
0	108404	20.51	-1
0	108961	20.61	-1
0	109518	20.71	-1
0	110075	20.81	-1
0	110632	20.91	-1
0	111197	21.01	-1
0	111754	21.11	-1
0	112311	21.21	-1
0	112868	21.31	-1
0	113425	21.41	-1
0	113982	21.51	-1
0	114539	21.61	-1
0	115096	21.71	-1
0	115653	21.81	-1
0	116210	21.91	-1
0	116775	22.01	-1
0	117332	22.11	-1
0	117889	22.21	-1
0	118446	22.31	-1
0	119003	22.41	-1
0	119560	22.51	-1
0	120117	22.61	-1
0	120674	22.71	-1
0	121231	22.81	-1
0	121788	22.91	-1
0	122353	23.01	-1
0	122910	23.11	-1
0	123467	23.21	-1
0	124024	23.31	-1
0	124581	23.41	-1
0	125138	23.51	-1
0	125695	23.61	-1
0	126252	23.71	-1
0	126809	23.81	-1
0	127366	23.91	-1
0	127931	24.01	-1
0	128488	24.11	-1
0	129045	24.21	-1
0	129602	24.31	-1
0	130159	24.41	-1
0	130716	24.51	-1
0	131273	24.61	-1
0	131830	24.71	-1
0	132387	24.81	-1
0	132944	24.91	-1
0	133509	25.01	-1
0	134066	25.11	-1
0	134623	25.21	-1
0	135180	25.31	-1
0	135737	25.41	-1
0	136294	25.51	-1
0	136851	25.61	-1
0	137408	25.71	-1
0	137965	25.81	-1
0	138522	25.91	-1
0	139087	26.01	-1
0	139644	26.11	-1
0	140201	26.21	-1
0	140758	26.31	-1
0	141315	26.41	-1
0	141872	26.51	-1
0	142429	26.61	-1
0	142986	26.71	-1
0	143543	26.81	-1
0	144100	26.91	-1
0	144665	27.01	-1
0	145222	27.11	-1
0	145779	27.21	-1
0	146336	27.31	-1
0	146893	27.41	-1
0	147450	27.51	-1
0	148007	27.61	-1
0	148564	27.71	-1
0	149121	27.81	-1
0	149678	27.91	-1
0	150243	28.01	-1
0	150800	28.11	-1
0	151357	28.21	-1
0	151914	28.31	-1
0	152471	28.41	-1
0	153028	28.51	-1
0	153585	28.61	-1
0	154142	28.71	-1
0	154699	28.81	-1
0	155256	28.91	-1
0	155821	29.01	-1
0	156378	29.11	-1
0	156935	29.21	-1
0	157492	29.31	-1
0	158049	29.41	-1
0	158606	29.51	-1
0	159163	29.61	-1
0	159720	29.71	-1
0	160277	29.81	-1
0	160834	29.91	-1
0	161399	30.01	-1
0	161956	30.11	-1
0	162513	30.21	-1
0	163070	30.31	-1
0	163627	30.41	-1
0	164184	30.51	-1
0	164741	30.61	-1
0	165298	30.71	-1
0	165855	30.81	-1
0	166412	30.91	-1
0	166977	31.01	-1
0	167534	31.11	-1
0	168091	31.21	-1
0	168648	31.31	-1
0	169205	31.41	-1
0	169762	31.51	-1
0	170319	31.61	-1
0	170876	31.71	-1
0	171433	31.81	-1
0	171990	31.91	-1
0	172555	32.01	-1
0	173112	32.11	-1
0	173669	32.21	-1
0	174226	32.31	-1
0	174783	32.41	-1
0	175340	32.51	-1
0	175897	32.61	-1
0	176454	32.71	-1
0	177011	32.81	-1
0	177568	32.91	-1
0	178133	33.01	-1
0	178690	33.11	-1
0	179247	33.21	-1
0	179804	33.31	-1
0	180361	33.41	-1
0	180918	33.51	-1
0	181475	33.61	-1
0	182032	33.71	-1
0	182589	33.81	-1
0	183146	33.91	-1
0	183711	34.01	-1
0	184268	34.11	-1
0	184825	34.21	-1
0	185382	34.31	-1
0	185939	34.41	-1
0	186496	34.51	-1
0	187053	34.61	-1
0	187610	34.71	-1
0	188167	34.81	-1
0	188724	34.91	-1
0	189289	35.01	-1
0	189846	35.11	-1
0	190403	35.21	-1
0	190960	35.31	-1
0	191517	35.41	-1
0	192074	35.51	-1
0	192631	35.61	-1
0	193188	35.71	-1
0	193745	35.81	-1
0	194302	35.91	-1
0	194867	36.01	-1
0	195424	36.11	-1
0	195981	36.21	-1
0	196538	36.31	-1
0	197095	36.41	-1
0	197652	36.51	-1
0	198209	36.61	-1
0	198766	36.71	-1
0	199323	36.81	-1
0	199880	36.91	-1
0	200445	37.01	-1
0	201002	37.11	-1
0	201559	37.21	-1
0	202116	37.31	-1
2	232	1.11	0
2	788	1.21	0
2	1344	1.31	0
2	1900	1.41	0
2	2456	1.51	0
2	3012	1.61	0
2	3568	1.71	0
2	4124	1.81	0
2	4680	1.91	0
2	5244	2.01	0
2	5800	2.11	0
2	6356	2.21	0
2	6912	2.31	0
2	7468	2.41	0
2	8024	2.51	0
2	8580	2.61	0
2	9136	2.71	0
2	9692	2.81	0
2	10248	2.91	0
2	10812	3.01	0
2	11368	3.11	0
2	11924	3.21	0
2	12480	3.31	0
2	13036	3.41	0
2	13592	3.51	0
2	14148	3.61	0
2	14704	3.71	0
2	15260	3.81	0
2	15816	3.91	0
2	16380	4.01	0
2	16936	4.11	0
2	17492	4.21	0
2	18048	4.31	0
2	18604	4.41	0
2	19160	4.51	0
2	19716	4.61	0
2	20272	4.71	0
2	20828	4.81	0
2	21384	4.91	0
2	21949	5.01	0
2	22506	5.11	0
2	23063	5.21	0
2	23620	5.31	0
2	24177	5.41	0
2	24734	5.51	0
2	25291	5.61	0
2	25848	5.71	0
2	26405	5.81	0
2	26962	5.91	0
2	27527	6.01	0
2	28084	6.11	0
2	28641	6.21	0
2	29198	6.31	0
2	29755	6.41	0
2	30312	6.51	0
2	30869	6.61	0
2	31426	6.71	0
2	31983	6.81	0
2	32540	6.91	0
2	33105	7.01	0
2	33662	7.11	0
2	34219	7.21	0
2	34776	7.31	0
2	35333	7.41	0
2	35890	7.51	0
2	36447	7.61	0
2	37004	7.71	0
2	37561	7.81	0
2	38118	7.91	0
2	38683	8.01	0
2	39240	8.11	0
2	39797	8.21	0
2	40354	8.31	0
2	40911	8.41	0
2	41468	8.51	0
2	42025	8.61	0
2	42582	8.71	0
2	43139	8.81	0
2	43696	8.91	0
2	44261	9.01	0
2	44818	9.11	0
2	45375	9.21	0
2	45932	9.31	0
2	46489	9.41	0
2	47046	9.51	0
2	47603	9.61	0
2	48160	9.71	0
2	48717	9.81	0
2	49274	9.91	0
2	49839	10.01	0
2	50396	10.11	0
2	50953	10.21	0
2	51510	10.31	0
2	52067	10.41	0
2	52624	10.51	0
2	53181	10.61	0
2	53738	10.71	0
2	54295	10.81	0
2	54852	10.91	0
2	55417	11.01	0
2	55974	11.11	0
2	56531	11.21	0
2	57088	11.31	0
2	57645	11.41	0
2	58202	11.51	0
2	58759	11.61	0
2	59316	11.71	0
2	59873	11.81	0
2	60430	11.91	0
2	60995	12.01	0
2	61552	12.11	0
2	62109	12.21	0
2	62666	12.31	0
2	63223	12.41	0
2	63780	12.51	0
2	64337	12.61	0
2	64894	12.71	0
2	65451	12.81	0
2	66008	12.91	0
2	66573	13.01	0
2	67130	13.11	0
2	67687	13.21	0
2	68244	13.31	0
2	68801	13.41	0
2	69358	13.51	0
2	69915	13.61	0
2	70472	13.71	0
2	71029	13.81	0
2	71586	13.91	0
2	72151	14.01	0
2	72708	14.11	0
2	73265	14.21	0
2	73822	14.31	0
2	74379	14.41	0
2	74936	14.51	0
2	75493	14.61	0
2	76050	14.71	0
2	76607	14.81	0
2	77164	14.91	0
2	77729	15.01	0
2	78286	15.11	0
2	78843	15.21	0
2	79400	15.31	0
2	79957	15.41	0
2	80514	15.51	0
2	81071	15.61	0
2	81628	15.71	0
2	82185	15.81	0
2	82742	15.91	0
2	83307	16.01	0
2	83864	16.11	0
2	84421	16.21	0
2	84978	16.31	0
2	85535	16.41	0
2	86092	16.51	0
2	86649	16.61	0
2	87206	16.71	0
2	87763	16.81	0
2	88320	16.91	0
2	88885	17.01	0
2	89442	17.11	0
2	89999	17.21	0
2	90556	17.31	0
2	91113	17.41	0
2	91670	17.51	0
2	92227	17.61	0
2	92784	17.71	0
2	93341	17.81	0
2	93898	17.91	0
2	94463	18.01	0
2	95020	18.11	0
2	95577	18.21	0
2	96134	18.31	0
2	96691	18.41	0
2	97248	18.51	0
2	97805	18.61	0
2	98362	18.71	0
2	98919	18.81	0
2	99476	18.91	0
2	100041	19.01	0
2	100598	19.11	0
2	101155	19.21	0
2	101712	19.31	0
2	102269	19.41	0
2	102826	19.51	0
2	103383	19.61	0
2	103940	19.71	0
2	104497	19.81	0
2	105054	19.91	0
2	105619	20.01	0
2	106176	20.11	0
2	106733	20.21	0
2	107290	20.31	0
2	107847	20.41	0
2	108404	20.51	0
2	108961	20.61	0
2	109518	20.71	0
2	110075	20.81	0
2	110632	20.91	0
2	111197	21.01	0
2	111754	21.11	0
2	112311	21.21	0
2	112868	21.31	0
2	113425	21.41	0
2	113982	21.51	0
2	114539	21.61	0
2	115096	21.71	0
2	115653	21.81	0
2	116210	21.91	0
2	116775	22.01	0
2	117332	22.11	0
2	117889	22.21	0
2	118446	22.31	0
2	119003	22.41	0
2	119560	22.51	0
2	120117	22.61	0
2	120674	22.71	0
2	121231	22.81	0
2	121788	22.91	0
2	122353	23.01	0
2	122910	23.11	0
2	123467	23.21	0
2	124024	23.31	0
2	124581	23.41	0
2	125138	23.51	0
2	125695	23.61	0
2	126252	23.71	0
2	126809	23.81	0
2	127366	23.91	0
2	127931	24.01	0
2	128488	24.11	0
2	129045	24.21	0
2	129602	24.31	0
2	130159	24.41	0
2	130716	24.51	0
2	131273	24.61	0
2	131830	24.71	0
2	132387	24.81	0
2	132944	24.91	0
2	133509	25.01	0
2	134066	25.11	0
2	134623	25.21	0
2	135180	25.31	0
2	135737	25.41	0
2	136294	25.51	0
2	136851	25.61	0
2	137408	25.71	0
2	137965	25.81	0
2	138522	25.91	0
2	139087	26.01	0
2	139644	26.11	0
2	140201	26.21	0
2	140758	26.31	0
2	141315	26.41	0
2	141872	26.51	0
2	142429	26.61	0
2	142986	26.71	0
2	143543	26.81	0
2	144100	26.91	0
2	144665	27.01	0
2	145222	27.11	0
2	145779	27.21	0
2	146336	27.31	0
2	146893	27.41	0
2	147450	27.51	0
2	148007	27.61	0
2	148564	27.71	0
2	149121	27.81	0
2	149678	27.91	0
2	150243	28.01	0
2	150800	28.11	0
2	151357	28.21	0
2	151914	28.31	0
2	152471	28.41	0
2	153028	28.51	0
2	153585	28.61	0
2	154142	28.71	0
2	154699	28.81	0
2	155256	28.91	0
2	155821	29.01	0
2	156378	29.11	0
2	156935	29.21	0
2	157492	29.31	0
2	158049	29.41	0
2	158606	29.51	0
2	159163	29.61	0
2	159720	29.71	0
2	160277	29.81	0
2	160834	29.91	0
2	161399	30.01	0
2	161956	30.11	0
2	162513	30.21	0
2	163070	30.31	0
2	163627	30.41	0
2	164184	30.51	0
2	164741	30.61	0
2	165298	30.71	0
2	165855	30.81	0
2	166412	30.91	0
2	166977	31.01	0
2	167534	31.11	0
2	168091	31.21	0
2	168648	31.31	0
2	169205	31.41	0
2	169762	31.51	0
2	170319	31.61	0
2	170876	31.71	0
2	171433	31.81	0
2	171990	31.91	0
2	172555	32.01	0
2	173112	32.11	0
2	173669	32.21	0
2	174226	32.31	0
2	174783	32.41	0
2	175340	32.51	0
2	175897	32.61	0
2	176454	32.71	0
2	177011	32.81	0
2	177568	32.91	0
2	178133	33.01	0
2	178690	33.11	0
2	179247	33.21	0
2	179804	33.31	0
2	180361	33.41	0
2	180918	33.51	0
2	181475	33.61	0
2	182032	33.71	0
2	182589	33.81	0
2	183146	33.91	0
2	183711	34.01	0
2	184268	34.11	0
2	184825	34.21	0
2	185382	34.31	0
2	185939	34.41	0
2	186496	34.51	0
2	187053	34.61	0
2	187610	34.71	0
2	188167	34.81	0
2	188724	34.91	0
2	189289	35.01	0
2	189846	35.11	0
2	190403	35.21	0
2	190960	35.31	0
2	191517	35.41	0
2	192074	35.51	0
2	192631	35.61	0
2	193188	35.71	0
2	193745	35.81	0
2	194302	35.91	0
2	194867	36.01	0
2	195424	36.11	0
2	195981	36.21	0
2	196538	36.31	0
2	197095	36.41	0
2	197652	36.51	0
2	198209	36.61	0
2	198766	36.71	0
2	199323	36.81	0
2	199880	36.91	0
2	200445	37.01	0
2	201002	37.11	0
2	201559	37.21	0
2	202116	37.31	0
10	5234	2	0
10	10802	3	0
10	16370	4	0
10	21939	5	0
10	27516	6	0
10	33094	7	0
10	38672	8	0
10	44250	9	0
10	49828	10	0
10	55406	11	0
10	60984	12	0
10	66562	13	0
10	72140	14	0
10	77718	15	0
10	83296	16	0
10	88874	17	0
10	94452	18	0
10	100030	19	0
10	105608	20	0
10	111186	21	0
10	116764	22	0
10	122342	23	0
10	127920	24	0
10	133498	25	0
10	139076	26	0
10	144654	27	0
10	150232	28	0
10	155810	29	0
10	161388	30	0
10	166966	31	0
10	172544	32	0
10	178122	33	0
10	183700	34	0
10	189278	35	0
10	194856	36	0
10	200434	37	0
9	5234	2	0.023625
9	10802	3	0.02625
9	16370	4	0.02625
9	21939	5	0.02625
9	27516	6	0.02625
9	33094	7	0.02625
9	38672	8	0.02625
9	44250	9	0.02625
9	49828	10	0.02625
9	55406	11	0.02625
9	60984	12	0.02625
9	66562	13	0.02625
9	72140	14	0.02625
9	77718	15	0.02625
9	83296	16	0.02625
9	88874	17	0.02625
9	94452	18	0.02625
9	100030	19	0.02625
9	105608	20	0.02625
9	111186	21	0.02625
9	116764	22	0.02625
9	122342	23	0.02625
9	127920	24	0.02625
9	133498	25	0.02625
9	139076	26	0.02625
9	144654	27	0.02625
9	150232	28	0.02625
9	155810	29	0.02625
9	161388	30	0.02625
9	166966	31	0.02625
9	172544	32	0.02625
9	178122	33	0.02625
9	183700	34	0.02625
9	189278	35	0.02625
9	194856	36	0.02625
9	200434	37	0.02625
8	5234	2	0
8	10802	3	0
8	16370	4	0
8	21939	5	0
8	27516	6	0
8	33094	7	0
8	38672	8	0
8	44250	9	0
8	49828	10	0
8	55406	11	0
8	60984	12	0
8	66562	13	0
8	72140	14	0
8	77718	15	0
8	83296	16	0
8	88874	17	0
8	94452	18	0
8	100030	19	0
8	105608	20	0
8	111186	21	0
8	116764	22	0
8	122342	23	0
8	127920	24	0
8	133498	25	0
8	139076	26	0
8	144654	27	0
[...]
35	127542	23.941827407331	0.100012100672
35	128107	24.041826507887	0.099999100556
35	128664	24.141825608323	0.099999100436
35	129221	24.241824708633	0.09999910031
35	129778	24.341823808812	0.099999100179
35	130335	24.441822908858	0.099999100046
35	130892	24.54182200877	0.099999099912
35	131449	24.641821108549	0.099999099779
35	132006	24.741820208201	0.099999099652
35	132563	24.841819307738	0.099999099537
35	133120	24.941818407179	0.099999099441
35	133685	25.041817506542	0.099999099363
35	134242	25.141816605849	0.099999099307
35	134799	25.241815705125	0.099999099276
35	135356	25.341814804396	0.099999099271
35	135913	25.441826903684	0.100012099288
35	136470	25.541826003004	0.09999909932
35	137027	25.641825102373	0.099999099369
35	137584	25.741824201805	0.099999099432
35	138141	25.84182330131	0.099999099505
35	138698	25.941822400896	0.099999099586
35	139263	26.04182150057	0.099999099674
35	139820	26.141820600343	0.099999099773
35	140377	26.241819700218	0.099999099875
35	140934	26.341818800203	0.099999099985
35	141491	26.441817900302	0.099999100099
35	142048	26.541817000518	0.099999100216
35	142605	26.641816100859	0.099999100341
35	143162	26.741815201327	0.099999100468
35	143719	26.841827301927	0.1000121006
35	144276	26.941826402662	0.099999100735
35	144841	27.041825503534	0.099999100872
35	145398	27.141824604542	0.099999101008
35	145955	27.241823705679	0.099999101137
35	146512	27.341822806934	0.099999101255
35	147069	27.44182190829	0.099999101356
35	147626	27.541821009727	0.099999101437
35	148183	27.641820111221	0.099999101494
35	148740	27.741819212746	0.099999101525
35	149297	27.84181831428	0.099999101534
35	149854	27.941817415802	0.099999101522
35	150419	28.041816517293	0.099999101491
35	150976	28.141815618739	0.099999101446
35	151533	28.241814720125	0.099999101386
35	152090	28.341826821443	0.100012101318
35	152647	28.441825922682	0.099999101239
35	153204	28.541825023834	0.099999101152
35	153761	28.641824124892	0.099999101058
35	154318	28.74182322585	0.099999100958
35	154875	28.841822326701	0.099999100851
35	155432	28.941821427442	0.099999100741
35	155997	29.041820528065	0.099999100623
35	156554	29.141819628571	0.099999100506
35	157111	29.24181872895	0.099999100379
35	157668	29.341817829201	0.099999100251
35	158225	29.441816929322	0.099999100121
35	158782	29.541816029307	0.099999099985
35	159339	29.641815129161	0.099999099854
35	159896	29.741827228888	0.100012099727
35	160453	29.841826328504	0.099999099616
35	161010	29.941825428021	0.099999099517
35	161575	30.041824527462	0.099999099441
35	162132	30.141823626849	0.099999099387
35	162689	30.241822726206	0.099999099357
35	163246	30.341821825558	0.099999099352
35	163803	30.441820924926	0.099999099368
35	164360	30.541820024328	0.099999099402
35	164917	30.64181912378	0.099999099452
35	165474	30.741818223294	0.099999099514
35	166031	30.841817322882	0.099999099588
35	166588	30.941816422552	0.09999909967
35	167153	31.041815522312	0.09999909976
35	167710	31.141814622167	0.099999099855
35	168267	31.241826722128	0.100012099961
35	168824	31.3418258222	0.099999100072
35	169381	31.441824922387	0.099999100187
35	169938	31.541824022696	0.099999100309
35	170495	31.64182312313	0.099999100434
35	171052	31.741822223696	0.099999100566
35	171609	31.841821324397	0.099999100701
35	172166	31.941820425237	0.09999910084
35	172731	32.04181952622	0.099999100983
35	173288	32.141818627341	0.099999101121
35	173845	32.241817728589	0.099999101248
35	174402	32.341816829933	0.099999101344
35	174959	32.441815931332	0.099999101399
35	175516	32.541815032724	0.099999101392
35	176073	32.641827134033	0.100012101309
35	176630	32.741826235155	0.099999101122
35	177187	32.841825335979	0.099999100824
35	177744	32.941824436375	0.099999100396
35	178309	33.041823536203	0.099999099828
35	178866	33.141822635316	0.099999099113
35	179423	33.241821733557	0.099999098241
35	179980	33.341820830767	0.09999909721
35	180537	33.441819926779	0.099999096012
35	181094	33.541819021425	0.099999094646
35	181651	33.641818114533	0.099999093108
35	182208	33.741817205931	0.099999091398
35	182765	33.841816295442	0.099999089511
35	183322	33.941815382889	0.099999087447
35	183887	34.041827468095	0.100012085206
35	184444	34.141826550884	0.099999082789
35	185001	34.241825631078	0.099999080194
35	185558	34.341824708497	0.099999077419
35	186115	34.441823782964	0.099999074467
35	186672	34.541822854303	0.099999071339
35	187229	34.641821922346	0.099999068043
35	187786	34.741820986933	0.099999064587
35	188343	34.841820047922	0.099999060989
35	188900	34.941819105182	0.09999905726
35	189465	35.041818158603	0.099999053421
35	190022	35.141817208098	0.099999049495
35	190579	35.241816253598	0.0999990455
35	191136	35.341815295049	0.099999041451
35	191693	35.441827332414	0.100012037365
35	192250	35.541826365671	0.099999033257
35	192807	35.641825394804	0.099999029133
35	193364	35.741824419804	0.099999025
35	193921	35.841823440674	0.09999902087
35	194478	35.941822457417	0.099999016743
35	195043	36.041821470051	0.099999012634
35	195600	36.141820478586	0.099999008535
35	196157	36.241819483043	0.099999004457
35	196714	36.341818483447	0.099999000404
35	197271	36.441817479822	0.099998996375
35	197828	36.541816472198	0.099998992376
35	198385	36.641815460606	0.099998988408
35	198942	36.741827445079	0.100011984473
35	199499	36.841826425651	0.099998980572
35	200056	36.941825402361	0.09999897671
35	200621	37.041824375242	0.099998972881
35	201178	37.141823344328	0.099998969086
35	201735	37.241822309642	0.099998965314
35	202292	37.341821271198	0.099998961556
36	964	1.241823501038	0.099999100761
36	1520	1.341822601799	0.099999100761
36	2076	1.44182170256	0.099999100761
36	2632	1.541820803321	0.099999100761
36	3188	1.641819904082	0.099999100761
36	3744	1.741819004843	0.099999100761
36	4300	1.841818105604	0.099999100761
36	4856	1.941817206365	0.099999100761
36	5420	2.041816307126	0.099999100761
36	5976	2.141815407887	0.099999100761
36	6532	2.241827508648	0.100012100761
36	7088	2.341826609409	0.099999100761
36	7644	2.44182571017	0.099999100761
36	8200	2.541824810931	0.099999100761
36	8756	2.641823911692	0.099999100761
36	9312	2.741823012453	0.099999100761
36	9868	2.841822113214	0.099999100761
36	10424	2.941821213975	0.099999100761
36	10988	3.041820314736	0.099999100761
36	11544	3.141819415497	0.099999100761
36	12100	3.241818516258	0.099999100761
36	12656	3.341817617019	0.099999100761
36	13212	3.44181671778	0.099999100761
36	13768	3.541815818541	0.099999100761
36	14324	3.641814919302	0.099999100761
36	14880	3.741827020063	0.100012100761
36	15436	3.841826120824	0.099999100761
36	15992	3.941825221585	0.099999100761
36	16556	4.041824322346	0.099999100761
36	17112	4.141823423107	0.099999100761
36	17668	4.241822523868	0.099999100761
36	18224	4.341821624629	0.099999100761
36	18780	4.44182072539	0.099999100761
36	19336	4.541819826151	0.099999100761
36	19892	4.641818926912	0.099999100761
36	20448	4.741818027673	0.099999100761
36	21004	4.841817128434	0.099999100761
36	21560	4.941816229195	0.099999100761
36	22125	5.041815329956	0.099999100761
36	22682	5.141827430717	0.100012100761
36	23239	5.24182653148	0.099999100763
36	23796	5.34182563225	0.09999910077
36	24353	5.441824733038	0.099999100788
36	24910	5.541823833856	0.099999100818
36	25467	5.641822934717	0.099999100861
36	26024	5.741822035639	0.099999100922
36	26581	5.841821136635	0.099999100996
36	27138	5.941820237717	0.099999101082
36	27703	6.041819338898	0.099999101181
36	28260	6.141818440185	0.099999101287
36	28817	6.241817541586	0.099999101401
36	29374	6.341816643109	0.099999101523
36	29931	6.441815744759	0.09999910165
36	30488	6.541814846542	0.099999101783
36	31045	6.641826948462	0.10001210192
36	31602	6.741826050518	0.099999102056
36	32159	6.841825152713	0.099999102195
36	32716	6.941824255043	0.09999910233
36	33281	7.041823357497	0.099999102454
36	33838	7.141822460058	0.099999102561
36	34395	7.241821562715	0.099999102657
36	34952	7.341820665445	0.09999910273
36	35509	7.441819768228	0.099999102783
36	36066	7.54181887104	0.099999102812
36	36623	7.641817973859	0.099999102819
36	37180	7.741817076662	0.099999102803
36	37737	7.841816179434	0.099999102772
36	38294	7.941815282158	0.099999102724
36	38859	8.041827384822	0.100012102664
36	39416	8.141826487417	0.099999102595
36	39973	8.241825589932	0.099999102515
36	40530	8.341824692361	0.099999102429
36	41087	8.441823794696	0.099999102335
36	41644	8.541822896928	0.099999102232
36	42201	8.641821999056	0.099999102128
36	42758	8.741821101072	0.099999102016
36	43315	8.84182020297	0.099999101898
36	43872	8.941819304748	0.099999101778
36	44437	9.041818406399	0.099999101651
36	44994	9.141817507921	0.099999101522
36	45551	9.241816609309	0.099999101388
36	46108	9.341815710562	0.099999101253
36	46665	9.441814811674	0.099999101112
36	47222	9.541826912641	0.100012100967
36	47779	9.641826013461	0.09999910082
36	48336	9.741825114138	0.099999100677
36	48893	9.841824214682	0.099999100544
36	49450	9.941823315104	0.099999100422
36	50015	10.041822415422	0.099999100318
36	50572	10.141821515659	0.099999100237
36	51129	10.241820615839	0.09999910018
36	51686	10.341819715987	0.099999100148
36	52243	10.441818816127	0.09999910014
36	52800	10.541817916279	0.099999100152
36	53357	10.641817016459	0.09999910018
36	53914	10.741816116682	0.099999100223
36	54471	10.84181521696	0.099999100278
36	55028	10.941827317306	0.100012100346
36	55593	11.041826417728	0.099999100422
36	56150	11.14182551823	0.099999100502
36	56707	11.241824618821	0.099999100591
36	57264	11.341823719508	0.099999100687
36	57821	11.441822820296	0.099999100788
36	58378	11.541821921192	0.099999100896
36	58935	11.641821022196	0.099999101004
36	59492	11.741820123316	0.09999910112
36	60049	11.841819224557	0.099999101241
36	60606	11.94181832592	0.099999101363
36	61171	12.041817427407	0.099999101487
36	61728	12.141816529017	0.09999910161
36	62285	12.24181563074	0.099999101723
36	62842	12.341814732564	0.099999101824
36	63399	12.44182683447	0.100012101906
36	63956	12.541825936442	0.099999101972
36	64513	12.64182503845	0.099999102008
36	65070	12.741824140473	0.099999102023
36	65627	12.841823242487	0.099999102014
36	66184	12.941822344472	0.099999101985
36	66749	13.04182144641	0.099999101938
36	67306	13.141820548288	0.099999101878
36	67863	13.24181965009	0.099999101802
36	68420	13.341818751811	0.099999101721
36	68977	13.441817853439	0.099999101628
36	69534	13.541816954969	0.09999910153
36	70091	13.641816056392	0.099999101423
36	70648	13.741815157702	0.09999910131
36	71205	13.841827258894	0.100012101192
36	71762	13.941826359963	0.099999101069
36	72327	14.041825460904	0.099999100941
36	72884	14.141824561716	0.099999100812
36	73441	14.24182366239	0.099999100674
36	73998	14.341822762926	0.099999100536
36	74555	14.441821863319	0.099999100393
36	75112	14.541820963567	0.099999100248
36	75669	14.641820063671	0.099999100104
36	76226	14.741819163638	0.099999099967
36	76783	14.84181826348	0.099999099842
36	77340	14.941817363213	0.099999099733
36	77905	15.041816462857	0.099999099644
36	78462	15.141815562436	0.099999099579
36	79019	15.241814661974	0.099999099538
36	79576	15.341826761494	0.10001209952
36	80133	15.441825861019	0.099999099525
36	80690	15.541824960567	0.099999099548
36	81247	15.641824060156	0.099999099589
36	81804	15.741823159797	0.099999099641
36	82361	15.841822259501	0.099999099704
36	82918	15.941821359279	0.099999099778
36	83483	16.041820459137	0.099999099858
36	84040	16.141819559083	0.099999099946
36	84597	16.241818659125	0.099999100042
36	85154	16.341817759267	0.099999100142
36	85711	16.441816859516	0.099999100249
36	86268	16.541815959878	0.099999100362
36	86825	16.641815060354	0.099999100476
36	87382	16.741827160952	0.100012100598
36	87939	16.841826261673	0.099999100721
36	88496	16.941825362524	0.099999100851
36	89061	17.041824463504	0.09999910098
36	89618	17.141823564613	0.099999101109
36	90175	17.241822665842	0.099999101229
36	90732	17.341821767183	0.099999101341
36	91289	17.441820868618	0.099999101435
36	91846	17.541819970126	0.099999101508
36	92403	17.641819071684	0.099999101558
36	92960	17.741818173267	0.099999101583
36	93517	17.841817274853	0.099999101586
36	94074	17.941816376419	0.099999101566
36	94639	18.041815477948	0.099999101529
36	95196	18.141827579423	0.100012101475
36	95753	18.241826680835	0.099999101412
36	96310	18.341825782172	0.099999101337
36	96867	18.441824883424	0.099999101252
36	97424	18.541823984583	0.099999101159
36	97981	18.641823085644	0.099999101061
36	98538	18.741822186597	0.099999100953
36	99095	18.84182128744	0.099999100843
36	99652	18.941820388167	0.099999100727
36	100217	19.041819488773	0.099999100606
36	100774	19.141818589257	0.099999100484
36	101331	19.241817689608	0.099999100351
36	101888	19.341816789828	0.09999910022
36	102445	19.441815889909	0.099999100081
36	103002	19.541814989854	0.099999099945
36	103559	19.641827089663	0.100012099809
36	104116	19.741826189342	0.099999099679
36	104673	19.841825288903	0.099999099561
36	105230	19.941824388359	0.099999099456
36	105795	20.041823487736	0.099999099377
36	106352	20.141822587055	0.099999099319
36	106909	20.241821686342	0.099999099287
36	107466	20.341820785618	0.099999099276
36	108023	20.441819884906	0.099999099288
36	108580	20.541818984225	0.099999099319
36	109137	20.641818083592	0.099999099367
36	109694	20.741817183016	0.099999099424
36	110251	20.841816282512	0.099999099496
36	110808	20.941815382086	0.099999099574
36	111373	21.041827481747	0.100012099661
36	111930	21.141826581502	0.099999099755
36	112487	21.241825681358	0.099999099856
36	113044	21.341824781321	0.099999099963
36	113601	21.441823881398	0.099999100077
36	114158	21.541822981591	0.099999100193
36	114715	21.641822081904	0.099999100313
36	115272	21.741821182342	0.099999100438
36	115829	21.84182028291	0.099999100568
36	116386	21.941819383613	0.099999100703
36	116951	22.041818484448	0.099999100835
36	117508	22.141817585418	0.09999910097
36	118065	22.241816686515	0.099999101097
36	118622	22.341815787728	0.099999101213
36	119179	22.44181488904	0.099999101312
36	119736	22.54182699043	0.10001210139
36	120293	22.641826091877	0.099999101447
36	120850	22.741825193354	0.099999101477
36	121407	22.841824294837	0.099999101483
36	121964	22.941823396305	0.099999101468
36	122529	23.041822497744	0.099999101439
36	123086	23.141821599133	0.099999101389
36	123643	23.241820700461	0.099999101328
36	124200	23.341819801721	0.09999910126
36	124757	23.441818902898	0.099999101177
36	125314	23.541818003986	0.099999101088
36	125871	23.641817104979	0.099999100993
36	126428	23.741816205873	0.099999100894
36	126985	23.841815306659	0.099999100786
36	127542	23.941827407331	0.100012100672
36	128107	24.041826507887	0.099999100556
36	128664	24.141825608323	0.099999100436
36	129221	24.241824708633	0.09999910031
36	129778	24.341823808812	0.099999100179
36	130335	24.441822908858	0.099999100046
36	130892	24.54182200877	0.099999099912
36	131449	24.641821108549	0.099999099779
36	132006	24.741820208201	0.099999099652
36	132563	24.841819307738	0.099999099537
36	133120	24.941818407179	0.099999099441
36	133685	25.041817506542	0.099999099363
36	134242	25.141816605849	0.099999099307
36	134799	25.241815705125	0.099999099276
36	135356	25.341814804396	0.099999099271
36	135913	25.441826903684	0.100012099288
36	136470	25.541826003004	0.09999909932
36	137027	25.641825102373	0.099999099369
36	137584	25.741824201805	0.099999099432
36	138141	25.84182330131	0.099999099505
36	138698	25.941822400896	0.099999099586
36	139263	26.04182150057	0.099999099674
36	139820	26.141820600343	0.099999099773
36	140377	26.241819700218	0.099999099875
36	140934	26.341818800203	0.099999099985
36	141491	26.441817900302	0.099999100099
36	142048	26.541817000518	0.099999100216
36	142605	26.641816100859	0.099999100341
36	143162	26.741815201327	0.099999100468
36	143719	26.841827301927	0.1000121006
36	144276	26.941826402662	0.099999100735
36	144841	27.041825503534	0.099999100872
36	145398	27.141824604542	0.099999101008
36	145955	27.241823705679	0.099999101137
36	146512	27.341822806934	0.099999101255
36	147069	27.44182190829	0.099999101356
36	147626	27.541821009727	0.099999101437
36	148183	27.641820111221	0.099999101494
36	148740	27.741819212746	0.099999101525
36	149297	27.84181831428	0.099999101534
36	149854	27.941817415802	0.099999101522
36	150419	28.041816517293	0.099999101491
36	150976	28.141815618739	0.099999101446
36	151533	28.241814720125	0.099999101386
36	152090	28.341826821443	0.100012101318
36	152647	28.441825922682	0.099999101239
36	153204	28.541825023834	0.099999101152
36	153761	28.641824124892	0.099999101058
36	154318	28.74182322585	0.099999100958
36	154875	28.841822326701	0.099999100851
36	155432	28.941821427442	0.099999100741
36	155997	29.041820528065	0.099999100623
36	156554	29.141819628571	0.099999100506
36	157111	29.24181872895	0.099999100379
36	157668	29.341817829201	0.099999100251
36	158225	29.441816929322	0.099999100121
36	158782	29.541816029307	0.099999099985
36	159339	29.641815129161	0.099999099854
36	159896	29.741827228888	0.100012099727
36	160453	29.841826328504	0.099999099616
36	161010	29.941825428021	0.099999099517
36	161575	30.041824527462	0.099999099441
36	162132	30.141823626849	0.099999099387
36	162689	30.241822726206	0.099999099357
36	163246	30.341821825558	0.099999099352
36	163803	30.441820924926	0.099999099368
36	164360	30.541820024328	0.099999099402
36	164917	30.64181912378	0.099999099452
36	165474	30.741818223294	0.099999099514
36	166031	30.841817322882	0.099999099588
36	166588	30.941816422552	0.09999909967
36	167153	31.041815522312	0.09999909976
36	167710	31.141814622167	0.099999099855
36	168267	31.241826722128	0.100012099961
36	168824	31.3418258222	0.099999100072
36	169381	31.441824922387	0.099999100187
36	169938	31.541824022696	0.099999100309
36	170495	31.64182312313	0.099999100434
36	171052	31.741822223696	0.099999100566
36	171609	31.841821324397	0.099999100701
36	172166	31.941820425237	0.09999910084
36	172731	32.04181952622	0.099999100983
36	173288	32.141818627341	0.099999101121
36	173845	32.241817728589	0.099999101248
36	174402	32.341816829933	0.099999101344
36	174959	32.441815931332	0.099999101399
36	175516	32.541815032724	0.099999101392
36	176073	32.641827134033	0.100012101309
36	176630	32.741826235155	0.099999101122
36	177187	32.841825335979	0.099999100824
36	177744	32.941824436375	0.099999100396
36	178309	33.041823536203	0.099999099828
36	178866	33.141822635316	0.099999099113
36	179423	33.241821733557	0.099999098241
36	179980	33.341820830767	0.09999909721
36	180537	33.441819926779	0.099999096012
36	181094	33.541819021425	0.099999094646
36	181651	33.641818114533	0.099999093108
36	182208	33.741817205931	0.099999091398
36	182765	33.841816295442	0.099999089511
36	183322	33.941815382889	0.099999087447
36	183887	34.041827468095	0.100012085206
36	184444	34.141826550884	0.099999082789
36	185001	34.241825631078	0.099999080194
36	185558	34.341824708497	0.099999077419
36	186115	34.441823782964	0.099999074467
36	186672	34.541822854303	0.099999071339
36	187229	34.641821922346	0.099999068043
36	187786	34.741820986933	0.099999064587
36	188343	34.841820047922	0.099999060989
36	188900	34.941819105182	0.09999905726
36	189465	35.041818158603	0.099999053421
36	190022	35.141817208098	0.099999049495
36	190579	35.241816253598	0.0999990455
36	191136	35.341815295049	0.099999041451
36	191693	35.441827332414	0.100012037365
36	192250	35.541826365671	0.099999033257
36	192807	35.641825394804	0.099999029133
36	193364	35.741824419804	0.099999025
36	193921	35.841823440674	0.09999902087
36	194478	35.941822457417	0.099999016743
36	195043	36.041821470051	0.099999012634
36	195600	36.141820478586	0.099999008535
36	196157	36.241819483043	0.099999004457
36	196714	36.341818483447	0.099999000404
36	197271	36.441817479822	0.099998996375
36	197828	36.541816472198	0.099998992376
36	198385	36.641815460606	0.099998988408
36	198942	36.741827445079	0.100011984473
36	199499	36.841826425651	0.099998980572
36	200056	36.941825402361	0.09999897671
36	200621	37.041824375242	0.099998972881
36	201178	37.141823344328	0.099998969086
36	201735	37.241822309642	0.099998965314
36	202292	37.341821271198	0.099998961556
