file 1686914 1501676105                                         
version 2
run SinusoidalJammingDetail-511-20170802-14:14:36-26770
attr CACCSpacing 20
attr attackAcc -30
attr attackPos 7
attr attackSpeed 150
attr attackStart 30
attr attacker 1
attr beaconInterval 0.1
attr configname SinusoidalJammingDetail
attr controller 1
attr datetime 20170802-14:14:36
attr experiment SinusoidalJammingDetail
attr fakeAcc "(1 == 4)"
attr fakePos "(1 == 2)"
attr fakeSpeed "(1 == 3)"
attr inifile omnetpp_511.ini
attr iterationvars "$leaderSpeed=100, $controller=1, $CACCSpacing=20, $sController=\"CACC\", $attacker=1, $attackStart=30, $attackSpeed=150, $attackPos=7, $attackAcc=-30, $0=20, $1=0, $nCars=8, $platoonSize=8, $nLanes=1, $beaconInterval=0.1, $priority=2, $packetSize=200, $ploegH=0.5, $leaderHeadway=1.2, $fakeSpeed=(1 == 3), $fakeAcc=(1 == 4), $fakePos=(1 == 2)"
attr iterationvarsf leaderSpeed=100,controller=1,CACCSpacing=20,sController=CACC,attacker=1,attackStart=30,attackSpeed=150,attackPos=7,attackAcc=-30,20,0,nCars=8,platoonSize=8,nLanes=1,beaconInterval=0.1,priority=2,packetSize=200,ploegH=0.5,leaderHeadway=1.2,fakeSpeed=(1_==_3),fakeAcc=(1_==_4),fakePos=(1_==_2)-
attr leaderHeadway 1.2
attr leaderSpeed 100
attr measurement "$leaderSpeed=100, $controller=1, $CACCSpacing=20, $sController=\"CACC\", $attacker=1, $attackStart=30, $attackSpeed=150, $attackPos=7, $attackAcc=-30, $0=20, $1=0, $nCars=8, $platoonSize=8, $nLanes=1, $beaconInterval=0.1, $priority=2, $packetSize=200, $ploegH=0.5, $leaderHeadway=1.2, $fakeSpeed=(1 == 3), $fakeAcc=(1 == 4), $fakePos=(1 == 2)"
attr nCars 8
attr nLanes 1
attr network scenario
attr packetSize 200
attr platoonSize 8
attr ploegH 0.5
attr priority 2
attr processid 26770
attr repetition 1
attr replication #1
attr resultdir results
attr runnumber 511
attr sController "\"CACC\""
attr seedset 1
param **.coreDebug false
param **.debug false
param **.headway 0.1s
param **.numberOfCars 8
param **.numberOfCarsPerPlatoon 8
param **.numberOfLanes 1
param **.numericController 1
param **.traffic.nCars 8
param **.traffic.nLanes 1
param **.traffic.platoonInsertDistance 20m
param **.traffic.platoonInsertHeadway 0s
param **.traffic.platoonInsertSpeed 100kmph
param **.traffic.platoonInsertTime "1 s"
param **.traffic.platoonLeaderHeadway 1.2s
param **.traffic.platoonSize 8
param **.traffic.platooningVType "\"vtypeauto\""
param **.traffic_type "\"PlatoonsTrafficManager\""
param *.**.nic.mac1609_4.bitrate 6Mbps
param *.**.nic.mac1609_4.txPower 100mW
param *.**.nic.mac1609_4.useServiceChannel false
param *.**.nic.phy80211p.analogueModels "xmldoc(\"config.xml\")"
param *.**.nic.phy80211p.decider "xmldoc(\"config.xml\")"
param *.**.nic.phy80211p.maxTXPower 100mW
param *.**.nic.phy80211p.sensitivity -94dBm
param *.**.nic.phy80211p.thermalNoise -95dBm
param *.**.nic.phy80211p.usePropagationDelay true
param *.**.nic.phy80211p.useThermalNoise true
param *.annotations.draw false
param *.connectionManager.alpha 2.0
param *.connectionManager.carrierFrequency "5.890e9 Hz"
param *.connectionManager.pMax 100mW
param *.connectionManager.sat -94dBm
param *.connectionManager.sendDirect true
param *.manager.autoShutdown true
param *.manager.commandLine "\"sumo --remote-port $port --seed $seed --configuration-file $configFile\""
param *.manager.configFile "\"./sumocfg/freeway.sumo.cfg\""
param *.manager.host "\"localhost\""
param *.manager.margin 25
param *.manager.moduleDisplayString "\"\""
param *.manager.moduleName "\"node\""
param *.manager.moduleType "\"Car\""
param *.manager.updateInterval 0.01s
param *.node[*].appl.attackStart 30s
param *.node[*].appl.attackerType 1
param *.node[*].appl.simulationDuration "60 s"
param *.node[*].appl_type "\"SimplePlatooningApp\""
param *.node[*].helper.nCars 8
param *.node[*].helper.nLanes 1
param *.node[*].helper.platoonSize 8
param *.node[*].helper_type "\"PositionHelper\""
param *.node[*].mobility.x 0
param *.node[*].mobility.y 0
param *.node[*].mobility.z 1.895
param *.node[*].prot.attackStart 30s
param *.node[*].prot.attackerType 1
param *.node[*].prot.attackingNode 3
param *.node[*].prot.beaconingInterval 0.1s
param *.node[*].prot.fakeAcc "(1 == 4)"
param *.node[*].prot.fakePos "(1 == 2)"
param *.node[*].prot.fakeSpeed "(1 == 3)"
param *.node[*].prot.maliciousAcc "-30 mpss"
param *.node[*].prot.maliciousSpeed 150kmph
param *.node[*].prot.packetSize 200
param *.node[*].prot.priority 2
param *.node[*].prot.shiftX "7 m"
param *.node[*].prot.useControllerAcceleration true
param *.node[*].protocol_type "\"SimplePlatooningBeaconing\""
param *.node[*].scenario.accHeadway 0.1s
param *.node[*].scenario.caccC1 0.5
param *.node[*].scenario.caccOmegaN "0.2 Hz"
param *.node[*].scenario.caccSpacing 20m
param *.node[*].scenario.caccXi 1
param *.node[*].scenario.controller "\"CACC\""
param *.node[*].scenario.engineTau "0.5 s"
param *.node[*].scenario.leaderHeadway 1.2s
param *.node[*].scenario.leaderOscillationFrequency "0.2 Hz"
param *.node[*].scenario.leaderSpeed 100kmph
param *.node[*].scenario.oscillationAmplitude "10 kmph"
param *.node[*].scenario.ploegH 0.5s
param *.node[*].scenario.ploegKd 0.7
param *.node[*].scenario.ploegKp 0.2
param *.node[*].scenario.startOscillating "5 s"
param *.node[*].scenario.useRealisticEngine false
param *.node[*].scenario_type "\"SinusoidalScenario\""
param *.node[*].unicast.packetLossRate 0
param *.obstacles.debug false
param *.playgroundSizeX 65000m
param *.playgroundSizeY 25000m
param *.playgroundSizeZ 50m
param *.world.use2D false
param *.world.useTorus false

vector 0  scenario.node[0].appl  distance  ETV
vector 1  scenario.node[0].appl  relativeSpeed  ETV
vector 2  scenario.node[0].appl  nodeId  ETV
vector 6  scenario.node[0].appl  acceleration  ETV
vector 7  scenario.node[0].appl  controllerAcceleration  ETV
vector 3  scenario.node[0].appl  speed  ETV
vector 4  scenario.node[0].appl  posx  ETV
vector 5  scenario.node[0].appl  posy  ETV
vector 22  scenario.node[1].appl  distance  ETV
vector 23  scenario.node[1].appl  relativeSpeed  ETV
vector 24  scenario.node[1].appl  nodeId  ETV
vector 28  scenario.node[1].appl  acceleration  ETV
vector 29  scenario.node[1].appl  controllerAcceleration  ETV
vector 25  scenario.node[1].appl  speed  ETV
vector 26  scenario.node[1].appl  posx  ETV
vector 27  scenario.node[1].appl  posy  ETV
vector 44  scenario.node[2].appl  distance  ETV
vector 45  scenario.node[2].appl  relativeSpeed  ETV
vector 46  scenario.node[2].appl  nodeId  ETV
vector 50  scenario.node[2].appl  acceleration  ETV
vector 51  scenario.node[2].appl  controllerAcceleration  ETV
vector 47  scenario.node[2].appl  speed  ETV
vector 48  scenario.node[2].appl  posx  ETV
vector 49  scenario.node[2].appl  posy  ETV
vector 66  scenario.node[3].appl  distance  ETV
vector 67  scenario.node[3].appl  relativeSpeed  ETV
vector 68  scenario.node[3].appl  nodeId  ETV
vector 72  scenario.node[3].appl  acceleration  ETV
vector 73  scenario.node[3].appl  controllerAcceleration  ETV
vector 69  scenario.node[3].appl  speed  ETV
vector 70  scenario.node[3].appl  posx  ETV
vector 71  scenario.node[3].appl  posy  ETV
vector 88  scenario.node[4].appl  distance  ETV
vector 89  scenario.node[4].appl  relativeSpeed  ETV
vector 90  scenario.node[4].appl  nodeId  ETV
vector 94  scenario.node[4].appl  acceleration  ETV
vector 95  scenario.node[4].appl  controllerAcceleration  ETV
vector 91  scenario.node[4].appl  speed  ETV
vector 92  scenario.node[4].appl  posx  ETV
vector 93  scenario.node[4].appl  posy  ETV
vector 110  scenario.node[5].appl  distance  ETV
vector 111  scenario.node[5].appl  relativeSpeed  ETV
vector 112  scenario.node[5].appl  nodeId  ETV
vector 116  scenario.node[5].appl  acceleration  ETV
vector 117  scenario.node[5].appl  controllerAcceleration  ETV
vector 113  scenario.node[5].appl  speed  ETV
vector 114  scenario.node[5].appl  posx  ETV
vector 115  scenario.node[5].appl  posy  ETV
vector 132  scenario.node[6].appl  distance  ETV
vector 133  scenario.node[6].appl  relativeSpeed  ETV
vector 134  scenario.node[6].appl  nodeId  ETV
vector 138  scenario.node[6].appl  acceleration  ETV
vector 139  scenario.node[6].appl  controllerAcceleration  ETV
vector 135  scenario.node[6].appl  speed  ETV
vector 136  scenario.node[6].appl  posx  ETV
vector 137  scenario.node[6].appl  posy  ETV
vector 154  scenario.node[7].appl  distance  ETV
vector 155  scenario.node[7].appl  relativeSpeed  ETV
vector 156  scenario.node[7].appl  nodeId  ETV
vector 160  scenario.node[7].appl  acceleration  ETV
vector 161  scenario.node[7].appl  controllerAcceleration  ETV
vector 157  scenario.node[7].appl  speed  ETV
vector 158  scenario.node[7].appl  posx  ETV
vector 159  scenario.node[7].appl  posy  ETV
vector 58  scenario.node[2].prot  frontDelay  ETV
vector 56  scenario.node[2].prot  frontDelayId  ETV
vector 102  scenario.node[4].prot  frontDelay  ETV
vector 100  scenario.node[4].prot  frontDelayId  ETV
vector 146  scenario.node[6].prot  frontDelay  ETV
vector 144  scenario.node[6].prot  frontDelayId  ETV
vector 168  scenario.node[7].prot  frontDelay  ETV
vector 166  scenario.node[7].prot  frontDelayId  ETV
vector 124  scenario.node[5].prot  frontDelay  ETV
vector 122  scenario.node[5].prot  frontDelayId  ETV
vector 35  scenario.node[1].prot  leaderDelay  ETV
vector 33  scenario.node[1].prot  leaderDelayId  ETV
vector 36  scenario.node[1].prot  frontDelay  ETV
vector 34  scenario.node[1].prot  frontDelayId  ETV
vector 57  scenario.node[2].prot  leaderDelay  ETV
vector 55  scenario.node[2].prot  leaderDelayId  ETV
vector 79  scenario.node[3].prot  leaderDelay  ETV
vector 77  scenario.node[3].prot  leaderDelayId  ETV
vector 101  scenario.node[4].prot  leaderDelay  ETV
vector 99  scenario.node[4].prot  leaderDelayId  ETV
vector 123  scenario.node[5].prot  leaderDelay  ETV
vector 121  scenario.node[5].prot  leaderDelayId  ETV
vector 145  scenario.node[6].prot  leaderDelay  ETV
vector 143  scenario.node[6].prot  leaderDelayId  ETV
vector 167  scenario.node[7].prot  leaderDelay  ETV
vector 165  scenario.node[7].prot  leaderDelayId  ETV
vector 80  scenario.node[3].prot  frontDelay  ETV
vector 78  scenario.node[3].prot  frontDelayId  ETV
vector 8  scenario.node[0].prot  nodeId  ETV
vector 9  scenario.node[0].prot  busyTime  ETV
vector 10  scenario.node[0].prot  collisions  ETV
vector 30  scenario.node[1].prot  nodeId  ETV
vector 31  scenario.node[1].prot  busyTime  ETV
vector 32  scenario.node[1].prot  collisions  ETV
vector 52  scenario.node[2].prot  nodeId  ETV
vector 53  scenario.node[2].prot  busyTime  ETV
vector 54  scenario.node[2].prot  collisions  ETV
vector 74  scenario.node[3].prot  nodeId  ETV
vector 75  scenario.node[3].prot  busyTime  ETV
vector 76  scenario.node[3].prot  collisions  ETV
vector 96  scenario.node[4].prot  nodeId  ETV
vector 97  scenario.node[4].prot  busyTime  ETV
vector 98  scenario.node[4].prot  collisions  ETV
vector 118  scenario.node[5].prot  nodeId  ETV
vector 119  scenario.node[5].prot  busyTime  ETV
vector 120  scenario.node[5].prot  collisions  ETV
vector 140  scenario.node[6].prot  nodeId  ETV
vector 141  scenario.node[6].prot  busyTime  ETV
vector 142  scenario.node[6].prot  collisions  ETV
vector 162  scenario.node[7].prot  nodeId  ETV
vector 163  scenario.node[7].prot  busyTime  ETV
vector 164  scenario.node[7].prot  collisions  ETV
7	11241 13860 232 328174 1.11 59.91 589 -1.5 1.5 -14.445974034379 993.24092368185
6	25101 18594 232 328174 1.11 59.91 589 -1.4722746794938 1.4513434175793 -12.50726914995 675.29835222675
5	43695 12081 232 328174 1.11 59.91 589 36.55 36.55 21527.95 786846.5725
4	55776 17895 232 328174 1.11 59.91 589 203.38317031834 1841.0326358608 602900.22400923 748918474.19071
3	73671 17905 232 328174 1.11 59.91 589 26.487965859734 29.742492528104 16403.83880962 457295.15275867
1	91576 9725 232 328174 1.11 59.91 589 0 0 0 0
0	101301 10314 232 328174 1.11 59.91 589 -1 -1 -589 589
2	111615 9725 232 328174 1.11 59.91 589 0 0 0 0
10	121340 858 5168 328662 2 60 59 0 0 0 0
9	122198 1154 5168 328662 2 60 59 0.023297 0.02625 1.545797 0.040508375209
8	123352 799 5168 328662 2 60 59 0 0 0 0
29	124151 18725 233 328175 1.11 59.91 589 -1.5466261422272 1.5427619280957 -0.46834123720734 469.37100516029
28	142876 19661 233 328175 1.11 59.91 589 -1.4899163920546 1.4506836311249 0.7490232895254 318.66630699882
27	162537 12670 233 328175 1.11 59.91 589 36.55 36.55 21527.95 786846.5725
26	175207 18497 233 328175 1.11 59.91 589 179.3831703186 1826.612077244 590392.26323015 725507315.56056
25	193704 18493 233 328175 1.11 59.91 589 26.476974864243 29.732323955484 16500.092674407 462508.67925371
23	212197 19585 233 328175 1.11 59.91 589 -2.2091920358465 1.2526137175851 -96.12879209619 320.91324394695
22	231782 18499 233 328175 1.11 59.91 589 9.3066055133625 22.418941658825 10153.885856373 184917.84490554
24	250281 10314 233 328175 1.11 59.91 589 1 1 589 589
36	260595 23707 1238 328624 1.297803401661 59.997808873271 588 0.099998900931 0.10001229367 58.800004752496 5.8800009563466
35	284302 23707 1238 328624 1.297803401661 59.997808873271 588 0.099998900931 0.10001229367 58.800004752496 5.8800009563466
34	308009 16122 1238 328624 1.297803401661 59.997808873271 588 1 1 588 588
33	324131 16122 1238 328624 1.297803401661 59.997808873271 588 1 1 588 588
32	340253 858 5169 328663 2 60 59 0 0 0 0
31	341111 1213 5169 328663 2 60 59 0.023297 0.02625 1.545797 0.040508375209
30	342324 858 5169 328663 2 60 59 1 1 59 59
51	343182 19520 234 328176 1.11 59.91 589 -1.5013789189422 1.5 1.6694826862119 454.84008253829
50	362702 19669 234 328176 1.11 59.91 589 -1.4795465362251 1.4451253722875 1.3037251194064 318.05320859017
49	382371 12670 234 328176 1.11 59.91 589 36.55 36.55 21527.95 786846.5725
48	395041 18496 234 328176 1.11 59.91 589 155.3831703186 1810.3638563389 577484.28614396 701333498.65872
47	413537 18489 234 328176 1.11 59.91 589 26.480520720116 29.721741405991 16577.629913499 466927.43071147
45	432026 20156 234 328176 1.11 59.91 589 -0.49022152105994 0.01362616114978 -77.544729324199 27.922750875138
44	452182 18473 234 328176 1.11 59.91 589 12.249366288522 20.082651851536 10553.527830979 194025.99440706
46	470655 10314 234 328176 1.11 59.91 589 2 2 1178 2356
58	480969 23696 832 328218 1.212436360941 59.91244213494 588 0.099998903919 0.100012294605 58.800005054885 5.8800010168225
57	504665 23710 1244 328630 1.297803481717 59.997808927454 588 0.099998900912 0.100012293647 58.800004726623 5.880000951172
56	528375 16110 832 328218 1.212436360941 59.91244213494 588 2 2 1176 2352
55	544485 16130 1244 328630 1.297803481717 59.997808927454 588 2 2 1176 2352
54	560615 858 5170 328664 2 60 59 0 0 0 0
53	561473 1213 5170 328664 2 60 59 0.023296 0.02625 1.545796 0.040508328616
52	562686 858 5170 328664 2 60 59 2 2 118 236
73	563544 19526 235 328177 1.11 59.91 589 -1.4907242777278 1.4960519250111 2.3622769201818 447.5153128188
72	583070 19596 235 328177 1.11 59.91 589 -1.4676550573046 1.443132550893 2.3007945247556 317.36758696314
71	602666 12670 235 328177 1.11 59.91 589 36.55 36.55 21527.95 786846.5725
70	615336 18504 235 328177 1.11 59.91 589 131.3831703186 1793.7591557259 564424.94734503 677275056.03899
69	633840 18509 235 328177 1.11 59.91 589 26.482920088897 29.713305205038 16651.618315596 471180.28837129
67	652349 20105 235 328177 1.11 59.91 589 -0.43377530664565 0.014939181441232 -74.001439348814 23.515707914331
66	672454 18475 235 328177 1.11 59.91 589 12.606734657487 20.042503288962 10704.818566964 198489.92381801
68	690929 10314 235 328177 1.11 59.91 589 3 3 1767 5301
80	701243 23696 1312 328707 1.307225561772 60.007217982811 588 0.099998900878 0.100012294757 58.799991701925 5.8799983460872
79	724939 23690 1250 328636 1.297803561772 59.997808982815 588 0.099998900879 0.100012293641 58.800004701929 5.8800009462332
78	748629 16119 1312 328707 1.307225561772 60.007217982811 588 3 3 1764 5292
77	764748 16116 1250 328636 1.297803561772 59.997808982815 588 3 3 1764 5292
76	780864 858 5171 328665 2 60 59 0 0 0 0
75	781722 1213 5171 328665 2 60 59 0.023297 0.02625 1.545797 0.040508375209
74	782935 858 5171 328665 2 60 59 3 3 177 531
95	783793 19526 236 328178 1.11 59.91 589 -1.49896143485 1.5003026741069 3.7373848563929 457.50657394941
94	803319 19588 236 328178 1.11 59.91 589 -1.4660392155321 1.4462525396294 3.7372537326558 319.41118229776
93	822907 12670 236 328178 1.11 59.91 589 36.55 36.55 21527.95 786846.5725
92	835577 18494 236 328178 1.11 59.91 589 107.3831703186 1776.6944966455 551198.88732903 653328057.9265
91	854071 18501 236 328178 1.11 59.91 589 26.480380628188 29.788174244075 16721.022103369 475201.42071335
89	872572 20109 236 328178 1.11 59.91 589 -0.37593092186382 0.014072232684686 -69.42679571809 20.279233318502
88	892681 18469 236 328178 1.11 59.91 589 13.067549257907 20.006724461053 10871.448091758 203768.20517848
90	911150 10314 236 328178 1.11 59.91 589 4 4 2356 9424
102	921464 24281 902 328288 1.235040521052 59.93504624724 588 0.099998903835 0.10001229459 58.800005007074 5.8800010072603
101	945745 24274 1256 328642 1.297803641828 59.997809039698 588 0.09999890083 0.100012293636 58.800004678756 5.8800009415986
100	970019 16694 902 328288 1.235040521052 59.93504624724 588 4 4 2352 9408
99	986713 16117 1256 328642 1.297803641828 59.997809039698 588 4 4 2352 9408
98	1002830 858 5172 328666 2 60 59 0 0 0 0
97	1003688 1213 5172 328666 2 60 59 0.023297 0.02625 1.545797 0.040508375209
96	1004901 858 5172 328666 2 60 59 4 4 236 944
117	1005759 19961 237 328179 1.11 59.91 589 -1.5271094736786 1.5255532075871 5.2899535605305 471.55460753271
116	1025720 20150 237 328179 1.11 59.91 589 -1.465375215075 1.4466599090554 5.5442058934325 320.59953147275
115	1045870 13259 237 328179 1.11 59.91 589 36.55 36.55 21527.95 786846.5725
114	1059129 19096 237 328179 1.11 59.91 589 83.383170318604 1759.0989547687 537823.60010112 629549540.18295
113	1078225 19090 237 328179 1.11 59.91 589 26.479312920464 30.012975713007 16785.13014793 478941.89114215
111	1097315 20612 237 328179 1.11 59.91 589 -0.34274115620815 0.019669743732361 -64.145417098631 17.794985915961
110	1117927 19057 237 328179 1.11 59.91 589 13.599172190815 20.044767086285 11020.569388803 208593.25424402
112	1136984 10903 237 328179 1.11 59.91 589 5 5 2945 14725
124	1147887 24292 1178 328564 1.297390081439 59.997382669992 588 0.099998901851 0.100012294991 58.799991869439 5.87999837959
123	1172179 24300 1262 328648 1.297803721883 59.997809098342 588 0.09999890077 0.100012293639 58.800004657345 5.8800009373164
122	1196479 16709 1178 328564 1.297390081439 59.997382669992 588 5 5 2940 14700
121	1213188 16716 1262 328648 1.297803721883 59.997809098342 588 5 5 2940 14700
120	1229904 917 5173 328667 2 60 59 0 0 0 0
119	1230821 1272 5173 328667 2 60 59 0.023297 0.02625 1.545797 0.040508375209
118	1232093 917 5173 328667 2 60 59 5 5 295 1475
139	1233010 20053 238 328180 1.11 59.91 589 -1.4994812225324 1.501091015645 7.457376386898 456.66962221447
138	1253063 20133 238 328180 1.11 59.91 589 -1.4608902332768 1.4424475028814 7.6626437757405 318.99610077201
137	1273196 13259 238 328180 1.11 59.91 589 36.55 36.55 21527.95 786846.5725
136	1286455 19105 238 328180 1.11 59.91 589 59.383172225952 1740.9079738956 524321.04900908 606007870.30324
135	1305560 19096 238 328180 1.11 59.91 589 26.483792184768 30.192586093802 16843.294524808 482355.09859408
133	1324656 20593 238 328180 1.11 59.91 589 -0.31377322672333 0.021050554588395 -58.219818936803 15.081395370262
132	1345249 19084 238 328180 1.11 59.91 589 14.195229980583 20.006916377624 11147.714379578 212764.91950241
134	1364333 10903 238 328180 1.11 59.91 589 6 6 3534 21204
146	1375236 24286 970 328356 1.248713681163 59.948706366577 588 0.099998902199 0.100012295237 58.7999919663 5.8799983989625
145	1399522 24280 1268 328654 1.297803801938 59.997809158964 588 0.099998900699 0.100012293636 58.800004637912 5.8800009334298
144	1423802 16712 970 328356 1.248713681163 59.948706366577 588 6 6 3528 21168
143	1440514 16695 1268 328654 1.297803801938 59.997809158964 588 6 6 3528 21168
142	1457209 917 5174 328668 2 60 59 0 0 0 0
141	1458126 1272 5174 328668 2 60 59 0.023297 0.02625 1.545797 0.040508375209
140	1459398 917 5174 328668 2 60 59 6 6 354 2124
161	1460315 19370 239 328181 1.11 59.91 589 -1.5084785480431 1.5101632403568 9.4874227641047 463.30769083658
160	1479685 20131 239 328181 1.11 59.91 589 -1.4625053298801 1.4442535724797 10.001468952488 320.37998407664
159	1499816 13259 239 328181 1.11 59.91 589 36.55 36.55 21527.95 786846.5725
158	1513075 19079 239 328181 1.11 59.91 589 35.383171749115 1722.0800862784 510700.01739139 582748300.18167
157	1532154 19070 239 328181 1.11 59.91 589 26.482293361588 30.339272294771 16895.097764115 485416.33695744
155	1551224 20652 239 328181 1.11 59.91 589 -0.28998319107527 0.022636832233317 -51.879865744204 12.565299617618
154	1571876 19091 239 328181 1.11 59.91 589 14.832586150226 20.011309407888 11266.067682477 216781.25233438
156	1590967 10903 239 328181 1.11 59.91 589 7 7 4123 28861
168	1601870 24262 1040 328426 1.263894761218 59.963887429341 588 0.099998902121 0.100012295003 58.799991949009 5.879998395504
167	1626132 24279 1274 328660 1.297803881994 59.997809221705 588 0.099998900621 0.100012293634 58.800004620597 5.8800009299668
166	1650411 16696 1040 328426 1.263894761218 59.963887429341 588 7 7 4116 28812
165	1667107 16701 1274 328660 1.297803881994 59.997809221705 588 7 7 4116 28812
164	1683808 917 5175 328669 2 60 59 0 0 0 0
163	1684725 1272 5175 328669 2 60 59 0.023297 0.02625 1.545797 0.040508375209
162	1685997 917 5175 328669 2 60 59 7 7 413 2891
