file 1103604 1501597353                                         
version 2
run SinusoidalJammingDetail-126-20170801-16:22:12-19195
attr CACCSpacing 13
attr attackAcc -30
attr attackPos 7
attr attackSpeed 150
attr attackStart 30.5
attr attacker 1
attr beaconInterval 0.1
attr configname SinusoidalJammingDetail
attr controller 1
attr datetime 20170801-16:22:12
attr experiment SinusoidalJammingDetail
attr fakeAcc "(1 == 4)"
attr fakePos "(1 == 2)"
attr fakeSpeed "(1 == 3)"
attr inifile omnetpp_126.ini
attr iterationvars "$leaderSpeed=50, $controller=1, $CACCSpacing=13, $sController=\"CACC\", $attacker=1, $attackStart=30.5, $attackSpeed=150, $attackPos=7, $attackAcc=-30, $0=13, $1=0, $nCars=8, $platoonSize=8, $nLanes=1, $beaconInterval=0.1, $priority=2, $packetSize=200, $ploegH=0.5, $leaderHeadway=1.2, $fakeSpeed=(1 == 3), $fakeAcc=(1 == 4), $fakePos=(1 == 2)"
attr iterationvarsf leaderSpeed=50,controller=1,CACCSpacing=13,sController=CACC,attacker=1,attackStart=30.5,attackSpeed=150,attackPos=7,attackAcc=-30,13,0,nCars=8,platoonSize=8,nLanes=1,beaconInterval=0.1,priority=2,packetSize=200,ploegH=0.5,leaderHeadway=1.2,fakeSpeed=(1_==_3),fakeAcc=(1_==_4),fakePos=(1_==_2)-
attr leaderHeadway 1.2
attr leaderSpeed 50
attr measurement "$leaderSpeed=50, $controller=1, $CACCSpacing=13, $sController=\"CACC\", $attacker=1, $attackStart=30.5, $attackSpeed=150, $attackPos=7, $attackAcc=-30, $0=13, $1=0, $nCars=8, $platoonSize=8, $nLanes=1, $beaconInterval=0.1, $priority=2, $packetSize=200, $ploegH=0.5, $leaderHeadway=1.2, $fakeSpeed=(1 == 3), $fakeAcc=(1 == 4), $fakePos=(1 == 2)"
attr nCars 8
attr nLanes 1
attr network scenario
attr packetSize 200
attr platoonSize 8
attr ploegH 0.5
attr priority 2
attr processid 19195
attr repetition 1
attr replication #1
attr resultdir results
attr runnumber 126
attr sController "\"CACC\""
attr seedset 1
param **.coreDebug false
param **.debug false
param **.headway 0.1s
param **.numberOfCars 8
param **.numberOfCarsPerPlatoon 8
param **.numberOfLanes 1
param **.numericController 1
param **.traffic.nCars 8
param **.traffic.nLanes 1
param **.traffic.platoonInsertDistance 13m
param **.traffic.platoonInsertHeadway 0s
param **.traffic.platoonInsertSpeed 50kmph
param **.traffic.platoonInsertTime "1 s"
param **.traffic.platoonLeaderHeadway 1.2s
param **.traffic.platoonSize 8
param **.traffic.platooningVType "\"vtypeauto\""
param **.traffic_type "\"PlatoonsTrafficManager\""
param *.**.nic.mac1609_4.bitrate 6Mbps
param *.**.nic.mac1609_4.txPower 100mW
param *.**.nic.mac1609_4.useServiceChannel false
param *.**.nic.phy80211p.analogueModels "xmldoc(\"config.xml\")"
param *.**.nic.phy80211p.decider "xmldoc(\"config.xml\")"
param *.**.nic.phy80211p.maxTXPower 100mW
param *.**.nic.phy80211p.sensitivity -94dBm
param *.**.nic.phy80211p.thermalNoise -95dBm
param *.**.nic.phy80211p.usePropagationDelay true
param *.**.nic.phy80211p.useThermalNoise true
param *.annotations.draw false
param *.connectionManager.alpha 2.0
param *.connectionManager.carrierFrequency "5.890e9 Hz"
param *.connectionManager.pMax 100mW
param *.connectionManager.sat -94dBm
param *.connectionManager.sendDirect true
param *.manager.autoShutdown true
param *.manager.commandLine "\"sumo --remote-port $port --seed $seed --configuration-file $configFile\""
param *.manager.configFile "\"./sumocfg/freeway.sumo.cfg\""
param *.manager.host "\"localhost\""
param *.manager.margin 25
param *.manager.moduleDisplayString "\"\""
param *.manager.moduleName "\"node\""
param *.manager.moduleType "\"Car\""
param *.manager.updateInterval 0.01s
param *.node[*].appl.attackStart 30.5s
param *.node[*].appl.attackerType 1
param *.node[*].appl.simulationDuration "60 s"
param *.node[*].appl_type "\"SimplePlatooningApp\""
param *.node[*].helper.nCars 8
param *.node[*].helper.nLanes 1
param *.node[*].helper.platoonSize 8
param *.node[*].helper_type "\"PositionHelper\""
param *.node[*].mobility.x 0
param *.node[*].mobility.y 0
param *.node[*].mobility.z 1.895
param *.node[*].prot.attackStart 30.5s
param *.node[*].prot.attackerType 1
param *.node[*].prot.attackingNode 3
param *.node[*].prot.beaconingInterval 0.1s
param *.node[*].prot.fakeAcc "(1 == 4)"
param *.node[*].prot.fakePos "(1 == 2)"
param *.node[*].prot.fakeSpeed "(1 == 3)"
param *.node[*].prot.maliciousAcc "-30 mpss"
param *.node[*].prot.maliciousSpeed 150kmph
param *.node[*].prot.packetSize 200
param *.node[*].prot.priority 2
param *.node[*].prot.shiftX "7 m"
param *.node[*].prot.useControllerAcceleration true
param *.node[*].protocol_type "\"SimplePlatooningBeaconing\""
param *.node[*].scenario.accHeadway 0.1s
param *.node[*].scenario.caccC1 0.5
param *.node[*].scenario.caccOmegaN "0.2 Hz"
param *.node[*].scenario.caccSpacing 13m
param *.node[*].scenario.caccXi 1
param *.node[*].scenario.controller "\"CACC\""
param *.node[*].scenario.engineTau "0.5 s"
param *.node[*].scenario.leaderHeadway 1.2s
param *.node[*].scenario.leaderOscillationFrequency "0.2 Hz"
param *.node[*].scenario.leaderSpeed 50kmph
param *.node[*].scenario.oscillationAmplitude "10 kmph"
param *.node[*].scenario.ploegH 0.5s
param *.node[*].scenario.ploegKd 0.7
param *.node[*].scenario.ploegKp 0.2
param *.node[*].scenario.startOscillating "5 s"
param *.node[*].scenario.useRealisticEngine false
param *.node[*].scenario_type "\"SinusoidalScenario\""
param *.node[*].unicast.packetLossRate 0
param *.obstacles.debug false
param *.playgroundSizeX 65000m
param *.playgroundSizeY 25000m
param *.playgroundSizeZ 50m
param *.world.use2D false
param *.world.useTorus false

vector 0  scenario.node[0].appl  distance  ETV
vector 1  scenario.node[0].appl  relativeSpeed  ETV
vector 2  scenario.node[0].appl  nodeId  ETV
vector 6  scenario.node[0].appl  acceleration  ETV
vector 7  scenario.node[0].appl  controllerAcceleration  ETV
vector 3  scenario.node[0].appl  speed  ETV
vector 4  scenario.node[0].appl  posx  ETV
vector 5  scenario.node[0].appl  posy  ETV
vector 22  scenario.node[1].appl  distance  ETV
vector 23  scenario.node[1].appl  relativeSpeed  ETV
vector 24  scenario.node[1].appl  nodeId  ETV
vector 28  scenario.node[1].appl  acceleration  ETV
vector 29  scenario.node[1].appl  controllerAcceleration  ETV
vector 25  scenario.node[1].appl  speed  ETV
vector 26  scenario.node[1].appl  posx  ETV
vector 27  scenario.node[1].appl  posy  ETV
vector 44  scenario.node[2].appl  distance  ETV
vector 45  scenario.node[2].appl  relativeSpeed  ETV
vector 46  scenario.node[2].appl  nodeId  ETV
vector 50  scenario.node[2].appl  acceleration  ETV
vector 51  scenario.node[2].appl  controllerAcceleration  ETV
vector 47  scenario.node[2].appl  speed  ETV
vector 48  scenario.node[2].appl  posx  ETV
vector 49  scenario.node[2].appl  posy  ETV
vector 66  scenario.node[3].appl  distance  ETV
vector 67  scenario.node[3].appl  relativeSpeed  ETV
vector 68  scenario.node[3].appl  nodeId  ETV
vector 72  scenario.node[3].appl  acceleration  ETV
vector 73  scenario.node[3].appl  controllerAcceleration  ETV
vector 69  scenario.node[3].appl  speed  ETV
vector 70  scenario.node[3].appl  posx  ETV
vector 71  scenario.node[3].appl  posy  ETV
vector 88  scenario.node[4].appl  distance  ETV
vector 89  scenario.node[4].appl  relativeSpeed  ETV
vector 90  scenario.node[4].appl  nodeId  ETV
vector 94  scenario.node[4].appl  acceleration  ETV
vector 95  scenario.node[4].appl  controllerAcceleration  ETV
vector 91  scenario.node[4].appl  speed  ETV
vector 92  scenario.node[4].appl  posx  ETV
vector 93  scenario.node[4].appl  posy  ETV
vector 110  scenario.node[5].appl  distance  ETV
vector 111  scenario.node[5].appl  relativeSpeed  ETV
vector 112  scenario.node[5].appl  nodeId  ETV
vector 116  scenario.node[5].appl  acceleration  ETV
vector 117  scenario.node[5].appl  controllerAcceleration  ETV
vector 113  scenario.node[5].appl  speed  ETV
vector 114  scenario.node[5].appl  posx  ETV
vector 115  scenario.node[5].appl  posy  ETV
vector 132  scenario.node[6].appl  distance  ETV
vector 133  scenario.node[6].appl  relativeSpeed  ETV
vector 134  scenario.node[6].appl  nodeId  ETV
vector 138  scenario.node[6].appl  acceleration  ETV
vector 139  scenario.node[6].appl  controllerAcceleration  ETV
vector 135  scenario.node[6].appl  speed  ETV
vector 136  scenario.node[6].appl  posx  ETV
vector 137  scenario.node[6].appl  posy  ETV
vector 154  scenario.node[7].appl  distance  ETV
vector 155  scenario.node[7].appl  relativeSpeed  ETV
vector 156  scenario.node[7].appl  nodeId  ETV
vector 160  scenario.node[7].appl  acceleration  ETV
vector 161  scenario.node[7].appl  controllerAcceleration  ETV
vector 157  scenario.node[7].appl  speed  ETV
vector 158  scenario.node[7].appl  posx  ETV
vector 159  scenario.node[7].appl  posy  ETV
vector 58  scenario.node[2].prot  frontDelay  ETV
vector 56  scenario.node[2].prot  frontDelayId  ETV
vector 102  scenario.node[4].prot  frontDelay  ETV
vector 100  scenario.node[4].prot  frontDelayId  ETV
vector 146  scenario.node[6].prot  frontDelay  ETV
vector 144  scenario.node[6].prot  frontDelayId  ETV
vector 168  scenario.node[7].prot  frontDelay  ETV
vector 166  scenario.node[7].prot  frontDelayId  ETV
vector 124  scenario.node[5].prot  frontDelay  ETV
vector 122  scenario.node[5].prot  frontDelayId  ETV
vector 35  scenario.node[1].prot  leaderDelay  ETV
vector 33  scenario.node[1].prot  leaderDelayId  ETV
vector 36  scenario.node[1].prot  frontDelay  ETV
vector 34  scenario.node[1].prot  frontDelayId  ETV
vector 57  scenario.node[2].prot  leaderDelay  ETV
vector 55  scenario.node[2].prot  leaderDelayId  ETV
vector 79  scenario.node[3].prot  leaderDelay  ETV
vector 77  scenario.node[3].prot  leaderDelayId  ETV
vector 101  scenario.node[4].prot  leaderDelay  ETV
vector 99  scenario.node[4].prot  leaderDelayId  ETV
vector 123  scenario.node[5].prot  leaderDelay  ETV
vector 121  scenario.node[5].prot  leaderDelayId  ETV
vector 145  scenario.node[6].prot  leaderDelay  ETV
vector 143  scenario.node[6].prot  leaderDelayId  ETV
vector 167  scenario.node[7].prot  leaderDelay  ETV
vector 165  scenario.node[7].prot  leaderDelayId  ETV
vector 80  scenario.node[3].prot  frontDelay  ETV
vector 78  scenario.node[3].prot  frontDelayId  ETV
vector 8  scenario.node[0].prot  nodeId  ETV
vector 9  scenario.node[0].prot  busyTime  ETV
vector 10  scenario.node[0].prot  collisions  ETV
vector 30  scenario.node[1].prot  nodeId  ETV
vector 31  scenario.node[1].prot  busyTime  ETV
vector 32  scenario.node[1].prot  collisions  ETV
vector 52  scenario.node[2].prot  nodeId  ETV
vector 53  scenario.node[2].prot  busyTime  ETV
vector 54  scenario.node[2].prot  collisions  ETV
vector 74  scenario.node[3].prot  nodeId  ETV
vector 75  scenario.node[3].prot  busyTime  ETV
vector 76  scenario.node[3].prot  collisions  ETV
vector 96  scenario.node[4].prot  nodeId  ETV
vector 97  scenario.node[4].prot  busyTime  ETV
vector 98  scenario.node[4].prot  collisions  ETV
vector 118  scenario.node[5].prot  nodeId  ETV
vector 119  scenario.node[5].prot  busyTime  ETV
vector 120  scenario.node[5].prot  collisions  ETV
vector 140  scenario.node[6].prot  nodeId  ETV
vector 141  scenario.node[6].prot  busyTime  ETV
vector 142  scenario.node[6].prot  collisions  ETV
vector 162  scenario.node[7].prot  nodeId  ETV
vector 163  scenario.node[7].prot  busyTime  ETV
vector 164  scenario.node[7].prot  collisions  ETV
7	11247 9211 232 216057 1.11 39.81 388 -1.5 1.5 -15.315317034531 628.09332627485
6	20458 12195 232 216057 1.11 39.81 388 -1.472274679513 1.4513430531444 -11.875310559042 427.71454156809
5	32653 7860 232 216057 1.11 39.81 388 36.55 36.55 14181.4 518330.17
4	40513 11700 232 216057 1.11 39.81 388 152.9942813872 694.93038425009 164923.80170989 79615232.714008
3	52213 11694 232 216057 1.11 39.81 388 12.59908680102 15.853603639796 5432.8403716345 76357.356166809
1	63907 6308 232 216057 1.11 39.81 388 0 0 0 0
0	70215 6696 232 216057 1.11 39.81 388 -1 -1 -388 388
2	76911 6308 232 216057 1.11 39.81 388 0 0 0 0
10	83219 543 5168 211524 2 39 38 0 0 0 0
9	83762 734 5168 211524 2 39 38 0.023297 0.02625 0.994547 0.026038062709
8	84496 505 5168 211524 2 39 38 0 0 0 0
51	85001 12579 234 216059 1.11 39.81 388 -1.5092135974097 1.5122039406897 26.126455982131 488.71202062781
50	97580 12641 234 216059 1.11 39.81 388 -1.4841297326063 1.4672918318949 26.764337391952 345.91511919702
49	110221 8248 234 216059 1.11 39.81 388 36.55 36.55 14181.4 518330.17
48	118469 12085 234 216059 1.11 39.81 388 118.99428138733 678.57041218484 152296.29300469 69575841.174124
47	130554 12086 234 216059 1.11 39.81 388 12.59309520908 16.828349244195 5610.5883236972 81732.811063868
45	142640 13345 234 216059 1.11 39.81 388 -0.93326210126805 0.012241039882397 -46.708172759846 34.42121413696
44	155985 12066 234 216059 1.11 39.81 388 8.3979664532905 13.033133737217 4916.180207583 62625.712382592
46	168051 6696 234 216059 1.11 39.81 388 2 2 776 1552
58	174747 15453 832 215544 1.212435964002 39.712438723083 386 0.099998711751 0.100011909475 38.600001666377 3.8600003383738
57	190200 15457 1244 215956 1.297802757886 39.797805347576 386 0.099998707732 0.100011909506 38.600001496986 3.8600003044967
56	205657 10483 832 215544 1.212435964002 39.712438723083 386 2 2 772 1544
55	216140 10474 1244 215956 1.297802757886 39.797805347576 386 2 2 772 1544
54	226614 543 5170 211526 2 39 38 0 0 0 0
53	227157 772 5170 211526 2 39 38 0.023296 0.02625 0.994546 0.026038016116
52	227929 543 5170 211526 2 39 38 2 2 76 152
73	228472 12542 235 216060 1.11 39.81 388 -1.4954488815774 1.4986508547754 33.762928979865 480.21799824622
72	241014 12605 235 216060 1.11 39.81 388 -1.4697266269408 1.4522492500257 34.361299639066 345.09949617853
71	253619 8248 235 216060 1.11 39.81 388 36.55 36.55 14181.4 518330.17
70	261867 12086 235 216060 1.11 39.81 388 101.99428138733 664.69213689363 145778.14088815 64610288.143768
69	273953 12078 235 216060 1.11 39.81 388 12.60788621176 17.433520669796 5642.0713594898 82793.718065758
67	286031 13240 235 216060 1.11 39.81 388 -0.75717915532026 0.021653877994089 -31.750679166585 17.398851791563
66	299271 12061 235 216060 1.11 39.81 388 9.8934495938278 13.052077926942 4966.781777254 63717.046120519
68	311332 6696 235 216060 1.11 39.81 388 3 3 1164 3492
80	318028 15453 1312 216025 1.307224814592 39.807227393894 386 0.099998712124 0.100011909229 38.600001486598 3.8600003024165
79	333481 15442 1250 215962 1.297802814592 39.797805393919 386 0.099998707479 0.100011909508 38.600001486623 3.8600003024241
78	348923 10476 1312 216025 1.307224814592 39.807227393894 386 3 3 1158 3474
77	359399 10468 1250 215962 1.297802814592 39.797805393919 386 3 3 1158 3474
76	369867 543 5171 211527 2 39 38 0 0 0 0
75	370410 772 5171 211527 2 39 38 0.023297 0.02625 0.994547 0.026038062709
74	371182 543 5171 211527 2 39 38 3 3 114 342
95	371725 12563 236 216061 1.11 39.81 388 -1.5015734358673 1.5060862511444 39.99828850292 491.52134785278
94	384288 12602 236 216061 1.11 39.81 388 -1.4671620223636 1.4503898338161 40.136545507868 348.56946666211
93	396890 8248 236 216061 1.11 39.81 388 36.55 36.55 14181.4 518330.17
92	405138 12081 236 216061 1.11 39.81 388 84.994281387329 649.77847163248 139230.47607911 59827292.781328
91	417219 12100 236 216061 1.11 39.81 388 12.609323964853 17.925192154315 5663.1360602802 83526.600189836
89	429319 13242 236 216061 1.11 39.81 388 -0.57214090054292 0.015827597329503 -21.408313786784 8.2660357931325
88	442561 12064 236 216061 1.11 39.81 388 10.925130649727 13.016703979023 4996.0861030601 64389.639136017
90	454625 6696 236 216061 1.11 39.81 388 4 4 1552 6208
102	461321 15849 902 215614 1.235040077414 39.735042819528 386 0.099998711311 0.100011909478 38.60000164941 3.8600003349805
101	477170 15848 1256 215968 1.297802871298 39.797805443704 386 0.099998707289 0.100011909509 38.600001479702 3.8600003010399
100	493018 10864 902 215614 1.235040077414 39.735042819528 386 4 4 1544 6176
99	503882 10484 1256 215968 1.297802871298 39.797805443704 386 4 4 1544 6176
98	514366 543 5172 211528 2 39 38 0 0 0 0
97	514909 772 5172 211528 2 39 38 0.023297 0.02625 0.994547 0.026038062709
96	515681 543 5172 211528 2 39 38 4 4 152 608
117	516224 12922 237 216062 1.11 39.81 388 -1.5284774914501 1.5300606456549 45.267287360662 508.55001221484
116	529146 12977 237 216062 1.11 39.81 388 -1.4661745337744 1.4484846922654 44.412555260927 351.22244698039
115	542123 8636 237 216062 1.11 39.81 388 36.55 36.55 14181.4 518330.17
114	550759 12476 237 216062 1.11 39.81 388 67.994281387329 634.08778452792 132658.88781334 55236934.071753
113	563235 12467 237 216062 1.11 39.81 388 12.611261608602 18.331060014942 5676.3784725841 84000.678248922
111	575702 13592 237 216062 1.11 39.81 388 -0.42547501952965 0.020930834484565 -13.643777758927 3.9226290851789
110	589294 12451 237 216062 1.11 39.81 388 11.699207267627 13.045839569727 5019.853114014 64965.749038761
112	601745 7084 237 216062 1.11 39.81 388 5 5 1940 9700
124	608829 15837 1178 215890 1.297389474356 39.797392194161 386 0.099998715139 0.100011909261 38.600001627101 3.8600003305172
123	624666 15863 1262 215974 1.297802928003 39.797805496071 386 0.099998707149 0.100011909508 38.600001475364 3.8600003001723
122	640529 10863 1178 215890 1.297389474356 39.797392194161 386 5 5 1930 9650
121	651392 10883 1262 215974 1.297802928003 39.797805496071 386 5 5 1930 9650
120	662275 581 5173 211529 2 39 38 0 0 0 0
119	662856 810 5173 211529 2 39 38 0.023297 0.02625 0.994547 0.026038062709
118	663666 581 5173 211529 2 39 38 5 5 190 950
139	664247 12934 238 216063 1.11 39.81 388 -1.4999727108308 1.5046152537571 47.946539156383 492.90406984134
138	677181 12977 238 216063 1.11 39.81 388 -1.4605505330708 1.4432664538838 47.41280398177 350.58573030421
137	690158 8636 238 216063 1.11 39.81 388 36.55 36.55 14181.4 518330.17
136	698794 12473 238 216063 1.11 39.81 388 50.994283294678 617.94655958485 126078.89477544 50858856.057693
135	711267 12483 238 216063 1.11 39.81 388 12.617696882826 18.626721224913 5685.0704981962 84312.667042474
133	723750 13552 238 216063 1.11 39.81 388 -0.29575938017678 0.023302087120397 -9.1361511647298 1.7263505358278
132	737302 12477 238 216063 1.11 39.81 388 12.147138167267 13.018853851986 5028.1668784106 65169.492259773
134	749779 7084 238 216063 1.11 39.81 388 6 6 2328 13968
146	756863 15826 970 215682 1.248713190826 39.74871592589 386 0.099998715641 0.10001190927 38.60000164236 3.8600003335691
145	772689 15849 1268 215980 1.297802984709 39.797805549932 386 0.099998707051 0.100011909511 38.600001472519 3.8600002996033
144	788538 10857 970 215682 1.248713190826 39.74871592589 386 6 6 2316 13896
143	799395 10881 1268 215980 1.297802984709 39.797805549932 386 6 6 2316 13896
142	810276 581 5174 211530 2 39 38 0 0 0 0
141	810857 810 5174 211530 2 39 38 0.023297 0.02625 0.994547 0.026038062709
140	811667 581 5174 211530 2 39 38 6 6 228 1368
161	812248 12909 239 216064 1.11 39.81 388 -1.5093935068811 1.5126459143773 50.494230744544 502.3876943517
160	825157 12970 239 216064 1.11 39.81 388 -1.4619692773802 1.4451435683178 49.451668545132 353.42176112572
159	838127 8636 239 216064 1.11 39.81 388 36.55 36.55 14181.4 518330.17
158	846763 12487 239 216064 1.11 39.81 388 33.994282817841 601.51368633898 119492.8365851 46696763.685267
157	859250 12478 239 216064 1.11 39.81 388 12.615598182171 18.828422483611 5690.8125315485 84522.637905983
155	871728 13603 239 216064 1.11 39.81 388 -0.20236985732915 0.024254044206115 -6.2161613921648 0.80791218787599
154	885331 12479 239 216064 1.11 39.81 388 12.43690727105 13.017969477081 5034.1730310092 65320.487463858
156	897810 7084 239 216064 1.11 39.81 388 7 7 2716 19012
168	904894 15858 1040 215752 1.263894247532 39.763883980738 386 0.099998711008 0.100011909247 38.599988640502 3.8599977330619
167	920752 15855 1274 215986 1.297803041415 39.79780560476 386 0.099998706985 0.100011909511 38.600001470641 3.8600002992277
166	936607 10868 1040 215752 1.263894247532 39.763883980738 386 7 7 2702 18914
165	947475 10873 1274 215986 1.297803041415 39.79780560476 386 7 7 2702 18914
164	958348 581 5175 211531 2 39 38 0 0 0 0
163	958929 810 5175 211531 2 39 38 0.023297 0.02625 0.994547 0.026038062709
162	959739 581 5175 211531 2 39 38 7 7 266 1862
22	960320 12099 233 216065 1.11 39.81 389 0 13.456959668763 4610.8834566567 58361.105346056
23	972419 12949 233 216065 1.11 39.81 389 -3.464898017568 0.41048196237476 -133.99358234686 338.22731001758
24	985368 6714 233 216065 1.11 39.81 389 1 1 389 389
25	992082 12116 233 216065 1.11 39.81 389 12.582739554075 16.10957527449 5579.6939592724 80470.252378302
26	1004198 12119 233 216065 1.11 39.81 389 135.99428138733 690.94970723926 159454.49224228 75171320.046829
27	1016317 8270 233 216065 1.11 39.81 389 36.55 36.55 14217.95 519666.0725
28	1024587 12668 233 216065 1.11 39.81 389 -1.4954736405162 1.4760592284102 17.281567906651 343.83477147206
29	1037255 12623 233 216065 1.11 39.81 389 -1.555555192602 1.5570065793937 16.988357800168 507.36713284022
30	1049878 543 5169 211525 2 39 38 1 1 38 38
31	1050421 772 5169 211525 2 39 38 0.023297 0.02625 0.994547 0.026038062709
32	1051193 543 5169 211525 2 39 38 0 0 0 0
33	1051736 10476 1238 215950 1.29780270118 39.797805306221 386 1 1 386 386
34	1062212 10476 1238 215950 1.29780270118 39.797805306221 386 1 1 386 386
35	1072688 15458 1238 215950 1.29780270118 39.797805306221 386 0.099998708044 0.100011909503 38.600001512337 3.8600003075669
36	1088146 15458 1238 215950 1.29780270118 39.797805306221 386 0.099998708044 0.100011909503 38.600001512337 3.8600003075669
