version 2
run SinusoidalJammingDetail-1140-20170803-16:23:33-45962
attr CACCSpacing 5
attr attackAcc -30
attr attackPos 7
attr attackSpeed 150
attr attackStart 30
attr attacker 1
attr beaconInterval 0.1
attr configname SinusoidalJammingDetail
attr controller 2
attr datetime 20170803-16:23:33
attr experiment SinusoidalJammingDetail
attr fakeAcc "(1 == 4)"
attr fakePos "(1 == 2)"
attr fakeSpeed "(1 == 3)"
attr inifile omnetpp_1140.ini
attr iterationvars "$leaderSpeed=150, $controller=2, $CACCSpacing=5, $sController=\"PLOEG\", $attacker=1, $attackStart=30, $attackSpeed=150, $attackPos=7, $attackAcc=-30, $0=5, $1=0.5, $nCars=8, $platoonSize=8, $nLanes=1, $beaconInterval=0.1, $priority=2, $packetSize=200, $ploegH=0.5, $leaderHeadway=1.2, $fakeSpeed=(1 == 3), $fakeAcc=(1 == 4), $fakePos=(1 == 2)"
attr iterationvarsf leaderSpeed=150,controller=2,CACCSpacing=5,sController=PLOEG,attacker=1,attackStart=30,attackSpeed=150,attackPos=7,attackAcc=-30,5,0.5,nCars=8,platoonSize=8,nLanes=1,beaconInterval=0.1,priority=2,packetSize=200,ploegH=0.5,leaderHeadway=1.2,fakeSpeed=(1_==_3),fakeAcc=(1_==_4),fakePos=(1_==_2)-
attr leaderHeadway 1.2
attr leaderSpeed 150
attr measurement "$leaderSpeed=150, $controller=2, $CACCSpacing=5, $sController=\"PLOEG\", $attacker=1, $attackStart=30, $attackSpeed=150, $attackPos=7, $attackAcc=-30, $0=5, $1=0.5, $nCars=8, $platoonSize=8, $nLanes=1, $beaconInterval=0.1, $priority=2, $packetSize=200, $ploegH=0.5, $leaderHeadway=1.2, $fakeSpeed=(1 == 3), $fakeAcc=(1 == 4), $fakePos=(1 == 2)"
attr nCars 8
attr nLanes 1
attr network scenario
attr packetSize 200
attr platoonSize 8
attr ploegH 0.5
attr priority 2
attr processid 45962
attr repetition 0
attr replication #0
attr resultdir results
attr runnumber 1140
attr sController "\"PLOEG\""
attr seedset 0
param **.coreDebug false
param **.debug false
param **.headway 0.1s
param **.numberOfCars 8
param **.numberOfCarsPerPlatoon 8
param **.numberOfLanes 1
param **.numericController 2
param **.traffic.nCars 8
param **.traffic.nLanes 1
param **.traffic.platoonInsertDistance 5m
param **.traffic.platoonInsertHeadway 0.5s
param **.traffic.platoonInsertSpeed 150kmph
param **.traffic.platoonInsertTime "1 s"
param **.traffic.platoonLeaderHeadway 1.2s
param **.traffic.platoonSize 8
param **.traffic.platooningVType "\"vtypeauto\""
param **.traffic_type "\"PlatoonsTrafficManager\""
param *.**.nic.mac1609_4.bitrate 6Mbps
param *.**.nic.mac1609_4.txPower 100mW
param *.**.nic.mac1609_4.useServiceChannel false
param *.**.nic.phy80211p.analogueModels "xmldoc(\"config.xml\")"
param *.**.nic.phy80211p.decider "xmldoc(\"config.xml\")"
param *.**.nic.phy80211p.maxTXPower 100mW
param *.**.nic.phy80211p.sensitivity -94dBm
param *.**.nic.phy80211p.thermalNoise -95dBm
param *.**.nic.phy80211p.usePropagationDelay true
param *.**.nic.phy80211p.useThermalNoise true
param *.annotations.draw false
param *.connectionManager.alpha 2.0
param *.connectionManager.carrierFrequency "5.890e9 Hz"
param *.connectionManager.pMax 100mW
param *.connectionManager.sat -94dBm
param *.connectionManager.sendDirect true
param *.manager.autoShutdown true
param *.manager.commandLine "\"sumo --remote-port $port --seed $seed --configuration-file $configFile\""
param *.manager.configFile "\"./sumocfg/freeway.sumo.cfg\""
param *.manager.host "\"localhost\""
param *.manager.margin 25
param *.manager.moduleDisplayString "\"\""
param *.manager.moduleName "\"node\""
param *.manager.moduleType "\"Car\""
param *.manager.updateInterval 0.01s
param *.node[*].appl.attackStart 30s
param *.node[*].appl.attackerType 1
param *.node[*].appl.simulationDuration "60 s"
param *.node[*].appl_type "\"SimplePlatooningApp\""
param *.node[*].helper.nCars 8
param *.node[*].helper.nLanes 1
param *.node[*].helper.platoonSize 8
param *.node[*].helper_type "\"PositionHelper\""
param *.node[*].mobility.x 0
param *.node[*].mobility.y 0
param *.node[*].mobility.z 1.895
param *.node[*].prot.attackStart 30s
param *.node[*].prot.attackerType 1
param *.node[*].prot.attackingNode 3
param *.node[*].prot.beaconingInterval 0.1s
param *.node[*].prot.fakeAcc "(1 == 4)"
param *.node[*].prot.fakePos "(1 == 2)"
param *.node[*].prot.fakeSpeed "(1 == 3)"
param *.node[*].prot.maliciousAcc "-30 mpss"
param *.node[*].prot.maliciousSpeed 150kmph
param *.node[*].prot.packetSize 200
param *.node[*].prot.priority 2
param *.node[*].prot.shiftX "7 m"
param *.node[*].prot.useControllerAcceleration true
param *.node[*].protocol_type "\"SimplePlatooningBeaconing\""
param *.node[*].scenario.accHeadway 0.1s
param *.node[*].scenario.caccC1 0.5
param *.node[*].scenario.caccOmegaN "0.2 Hz"
param *.node[*].scenario.caccSpacing 5m
param *.node[*].scenario.caccXi 1
param *.node[*].scenario.controller "\"PLOEG\""
param *.node[*].scenario.engineTau "0.5 s"
param *.node[*].scenario.leaderHeadway 1.2s
param *.node[*].scenario.leaderOscillationFrequency "0.2 Hz"
param *.node[*].scenario.leaderSpeed 150kmph
param *.node[*].scenario.oscillationAmplitude "10 kmph"
param *.node[*].scenario.ploegH 0.5s
param *.node[*].scenario.ploegKd 0.7
param *.node[*].scenario.ploegKp 0.2
param *.node[*].scenario.startOscillating "5 s"
param *.node[*].scenario.useRealisticEngine false
param *.node[*].scenario_type "\"SinusoidalScenario\""
param *.node[*].unicast.packetLossRate 0
param *.obstacles.debug false
param *.playgroundSizeX 65000m
param *.playgroundSizeY 25000m
param *.playgroundSizeZ 50m
param *.world.use2D false
param *.world.useTorus false

vector 0  scenario.node[0].appl  distance  ETV
vector 1  scenario.node[0].appl  relativeSpeed  ETV
vector 2  scenario.node[0].appl  nodeId  ETV
vector 6  scenario.node[0].appl  acceleration  ETV
vector 7  scenario.node[0].appl  controllerAcceleration  ETV
vector 3  scenario.node[0].appl  speed  ETV
vector 4  scenario.node[0].appl  posx  ETV
vector 5  scenario.node[0].appl  posy  ETV
vector 22  scenario.node[1].appl  distance  ETV
vector 23  scenario.node[1].appl  relativeSpeed  ETV
vector 24  scenario.node[1].appl  nodeId  ETV
vector 28  scenario.node[1].appl  acceleration  ETV
vector 29  scenario.node[1].appl  controllerAcceleration  ETV
vector 25  scenario.node[1].appl  speed  ETV
vector 26  scenario.node[1].appl  posx  ETV
vector 27  scenario.node[1].appl  posy  ETV
vector 44  scenario.node[2].appl  distance  ETV
vector 45  scenario.node[2].appl  relativeSpeed  ETV
vector 46  scenario.node[2].appl  nodeId  ETV
vector 50  scenario.node[2].appl  acceleration  ETV
vector 51  scenario.node[2].appl  controllerAcceleration  ETV
vector 47  scenario.node[2].appl  speed  ETV
vector 48  scenario.node[2].appl  posx  ETV
vector 49  scenario.node[2].appl  posy  ETV
vector 66  scenario.node[3].appl  distance  ETV
vector 67  scenario.node[3].appl  relativeSpeed  ETV
vector 68  scenario.node[3].appl  nodeId  ETV
vector 72  scenario.node[3].appl  acceleration  ETV
vector 73  scenario.node[3].appl  controllerAcceleration  ETV
vector 69  scenario.node[3].appl  speed  ETV
vector 70  scenario.node[3].appl  posx  ETV
vector 71  scenario.node[3].appl  posy  ETV
vector 88  scenario.node[4].appl  distance  ETV
vector 89  scenario.node[4].appl  relativeSpeed  ETV
vector 90  scenario.node[4].appl  nodeId  ETV
vector 94  scenario.node[4].appl  acceleration  ETV
vector 95  scenario.node[4].appl  controllerAcceleration  ETV
vector 91  scenario.node[4].appl  speed  ETV
vector 92  scenario.node[4].appl  posx  ETV
vector 93  scenario.node[4].appl  posy  ETV
vector 110  scenario.node[5].appl  distance  ETV
vector 111  scenario.node[5].appl  relativeSpeed  ETV
vector 112  scenario.node[5].appl  nodeId  ETV
vector 116  scenario.node[5].appl  acceleration  ETV
vector 117  scenario.node[5].appl  controllerAcceleration  ETV
vector 113  scenario.node[5].appl  speed  ETV
vector 114  scenario.node[5].appl  posx  ETV
vector 115  scenario.node[5].appl  posy  ETV
vector 132  scenario.node[6].appl  distance  ETV
vector 133  scenario.node[6].appl  relativeSpeed  ETV
vector 134  scenario.node[6].appl  nodeId  ETV
vector 138  scenario.node[6].appl  acceleration  ETV
vector 139  scenario.node[6].appl  controllerAcceleration  ETV
vector 135  scenario.node[6].appl  speed  ETV
vector 136  scenario.node[6].appl  posx  ETV
vector 137  scenario.node[6].appl  posy  ETV
vector 154  scenario.node[7].appl  distance  ETV
vector 155  scenario.node[7].appl  relativeSpeed  ETV
vector 156  scenario.node[7].appl  nodeId  ETV
vector 160  scenario.node[7].appl  acceleration  ETV
vector 161  scenario.node[7].appl  controllerAcceleration  ETV
vector 157  scenario.node[7].appl  speed  ETV
vector 158  scenario.node[7].appl  posx  ETV
vector 159  scenario.node[7].appl  posy  ETV
vector 80  scenario.node[3].prot  frontDelay  ETV
vector 78  scenario.node[3].prot  frontDelayId  ETV
vector 58  scenario.node[2].prot  frontDelay  ETV
vector 56  scenario.node[2].prot  frontDelayId  ETV
vector 168  scenario.node[7].prot  frontDelay  ETV
vector 166  scenario.node[7].prot  frontDelayId  ETV
vector 35  scenario.node[1].prot  leaderDelay  ETV
vector 33  scenario.node[1].prot  leaderDelayId  ETV
vector 36  scenario.node[1].prot  frontDelay  ETV
vector 34  scenario.node[1].prot  frontDelayId  ETV
vector 57  scenario.node[2].prot  leaderDelay  ETV
vector 55  scenario.node[2].prot  leaderDelayId  ETV
vector 79  scenario.node[3].prot  leaderDelay  ETV
vector 77  scenario.node[3].prot  leaderDelayId  ETV
vector 101  scenario.node[4].prot  leaderDelay  ETV
vector 99  scenario.node[4].prot  leaderDelayId  ETV
vector 123  scenario.node[5].prot  leaderDelay  ETV
vector 121  scenario.node[5].prot  leaderDelayId  ETV
vector 145  scenario.node[6].prot  leaderDelay  ETV
vector 143  scenario.node[6].prot  leaderDelayId  ETV
vector 167  scenario.node[7].prot  leaderDelay  ETV
vector 165  scenario.node[7].prot  leaderDelayId  ETV
vector 124  scenario.node[5].prot  frontDelay  ETV
vector 122  scenario.node[5].prot  frontDelayId  ETV
vector 102  scenario.node[4].prot  frontDelay  ETV
vector 100  scenario.node[4].prot  frontDelayId  ETV
vector 146  scenario.node[6].prot  frontDelay  ETV
vector 144  scenario.node[6].prot  frontDelayId  ETV
vector 8  scenario.node[0].prot  nodeId  ETV
vector 9  scenario.node[0].prot  busyTime  ETV
vector 10  scenario.node[0].prot  collisions  ETV
vector 30  scenario.node[1].prot  nodeId  ETV
vector 31  scenario.node[1].prot  busyTime  ETV
vector 32  scenario.node[1].prot  collisions  ETV
vector 52  scenario.node[2].prot  nodeId  ETV
vector 53  scenario.node[2].prot  busyTime  ETV
vector 54  scenario.node[2].prot  collisions  ETV
vector 74  scenario.node[3].prot  nodeId  ETV
vector 75  scenario.node[3].prot  busyTime  ETV
vector 76  scenario.node[3].prot  collisions  ETV
vector 96  scenario.node[4].prot  nodeId  ETV
vector 97  scenario.node[4].prot  busyTime  ETV
vector 98  scenario.node[4].prot  collisions  ETV
vector 118  scenario.node[5].prot  nodeId  ETV
vector 119  scenario.node[5].prot  busyTime  ETV
vector 120  scenario.node[5].prot  collisions  ETV
vector 140  scenario.node[6].prot  nodeId  ETV
vector 141  scenario.node[6].prot  busyTime  ETV
vector 142  scenario.node[6].prot  collisions  ETV
vector 162  scenario.node[7].prot  nodeId  ETV
vector 163  scenario.node[7].prot  busyTime  ETV
vector 164  scenario.node[7].prot  collisions  ETV
7	232	1.11	-1.264609664986e-06
7	788	1.21	-1.2370558053476e-06
7	1344	1.31	-1.1922643139428e-06
7	1900	1.41	-1.1341353030048e-06
7	2456	1.51	-1.0661075364737e-06
7	3012	1.61	-9.9117950469463e-07
7	3568	1.71	-9.1193474816009e-07
7	4124	1.81	-8.3057002342457e-07
7	4680	1.91	-7.4892560064654e-07
7	5244	2.01	-6.6851609403784e-07
7	5800	2.11	-5.9056183232542e-07
7	6356	2.21	-5.1602003736662e-07
7	6912	2.31	-4.4561458878434e-07
7	7468	2.41	-3.7986517753552e-07
7	8024	2.51	-3.1911461206846e-07
7	8580	2.61	-2.6355444049386e-07
7	9136	2.71	-2.1324864718508e-07
7	9692	2.81	-1.6815555881067e-07
7	10248	2.91	-1.2814749794643e-07
7	10812	3.01	-9.3028553749264e-08
7	11368	3.11	-6.255026363533e-08
7	11924	3.21	-3.6425589655664e-08
7	12480	3.31	-1.4340962195547e-08
7	13036	3.41	4.0332679418498e-09
7	13592	3.51	1.9034231968362e-08
7	14148	3.61	3.0998883460143e-08
7	14704	3.71	4.0258086642098e-08
7	15260	3.81	4.7131671010447e-08
7	15816	3.91	5.1925063360159e-08
7	16380	4.01	5.4926061920924e-08
7	16936	4.11	5.6402775783226e-08
7	17492	4.21	5.6602530662531e-08
7	18048	4.31	5.5751151251116e-08
7	18604	4.41	5.4052726738973e-08
7	19160	4.51	5.1689909241759e-08
7	19716	4.61	4.8824482234977e-08
7	20272	4.71	4.5598198994412e-08
7	20828	4.81	4.2133798672239e-08
7	21384	4.91	3.8536192903393e-08
7	21949	5.01	3.4893794520485e-08
7	22506	5.11	0.34814790229188
7	23063	5.21	0.68726938086839
7	23620	5.31	1.0064706392337
7	24177	5.41	1.2963311769431
7	24734	5.51	1.5
7	25291	5.61	1.5
7	25848	5.71	1.5
7	26405	5.81	1.5
7	26962	5.91	1.5
7	27527	6.01	1.5
7	28084	6.11	1.5
7	28641	6.21	1.5
7	29198	6.31	1.5
7	29755	6.41	1.5
7	30312	6.51	1.4919234166485
7	30869	6.61	1.2264993309071
7	31426	6.71	0.9230538423432
7	31983	6.81	0.58908102202894
7	32540	6.91	0.23235621850268
7	33105	7.01	-0.13919559587845
7	33662	7.11	-0.51762846369643
7	34219	7.21	-0.89509993758214
7	34776	7.31	-1.2639902868434
7	35333	7.41	-1.5
7	35890	7.51	-1.5
7	36447	7.61	-1.5
7	37004	7.71	-1.5
7	37561	7.81	-1.5
7	38118	7.91	-1.5
7	38683	8.01	-1.5
7	39240	8.11	-1.5
7	39797	8.21	-1.5
7	40354	8.31	-1.5
7	40911	8.41	-1.5
7	41468	8.51	-1.5
7	42025	8.61	-1.5
7	42582	8.71	-1.5
7	43139	8.81	-1.5
7	43696	8.91	-1.5
7	44261	9.01	-1.5
7	44818	9.11	-1.5
7	45375	9.21	-1.5
7	45932	9.31	-1.5
7	46489	9.41	-1.5
7	47046	9.51	-1.1784535903605
7	47603	9.61	-0.73985166412807
7	48160	9.71	-0.29046662052636
7	48717	9.81	0.1586820567595
7	49274	9.91	0.59737147696769
7	49839	10.01	1.0162504342412
7	50396	10.11	1.4069035499393
7	50953	10.21	1.5
7	51510	10.31	1.5
7	52067	10.41	1.5
7	52624	10.51	1.5
7	53181	10.61	1.5
7	53738	10.71	1.5
7	54295	10.81	1.5
7	54852	10.91	1.5
7	55417	11.01	1.5
7	55974	11.11	1.5
7	56531	11.21	1.5
7	57088	11.31	1.5
7	57645	11.41	1.5
7	58202	11.51	1.5
7	58759	11.61	1.5
7	59316	11.71	1.5
7	59873	11.81	1.5
7	60430	11.91	1.1420569523654
7	60995	12.01	0.73271074176932
7	61552	12.11	0.30763491705864
7	62109	12.21	-0.12290183397916
7	62666	12.31	-0.54917422862574
7	63223	12.41	-0.96209331714029
7	63780	12.51	-1.3532900275071
7	64337	12.61	-1.5
7	64894	12.71	-1.5
7	65451	12.81	-1.5
7	66008	12.91	-1.5
7	66573	13.01	-1.5
7	67130	13.11	-1.5
7	67687	13.21	-1.5
7	68244	13.31	-1.5
7	68801	13.41	-1.5
7	69358	13.51	-1.5
7	69915	13.61	-1.5
7	70472	13.71	-1.5
7	71029	13.81	-1.5
7	71586	13.91	-1.5
7	72151	14.01	-1.5
7	72708	14.11	-1.5
7	73265	14.21	-1.5
7	73822	14.31	-1.5
7	74379	14.41	-1.3008305793046
7	74936	14.51	-0.88835736019924
7	75493	14.61	-0.45792464373664
7	76050	14.71	-0.020297800469415
7	76607	14.81	0.41435934758473
7	77164	14.91	0.83657487485725
7	77729	15.01	1.2376491839042
7	78286	15.11	1.5
7	78843	15.21	1.5
7	79400	15.31	1.5
7	79957	15.41	1.5
7	80514	15.51	1.5
7	81071	15.61	1.5
7	81628	15.71	1.5
7	82185	15.81	1.5
7	82742	15.91	1.5
7	83307	16.01	1.5
7	83864	16.11	1.5
7	84421	16.21	1.5
7	84978	16.31	1.5
7	85535	16.41	1.5
7	86092	16.51	1.5
7	86649	16.61	1.5
7	87206	16.71	1.5
7	87763	16.81	1.5
7	88320	16.91	1.2451238477419
7	88885	17.01	0.83347870135727
7	89442	17.11	0.40470958877236
7	89999	17.21	-0.030598062215738
7	90556	17.31	-0.46243980386358
7	91113	17.41	-0.88148335304344
7	91670	17.51	-1.2791500631696
7	92227	17.61	-1.5
7	92784	17.71	-1.5
7	93341	17.81	-1.5
7	93898	17.91	-1.5
7	94463	18.01	-1.5
7	95020	18.11	-1.5
7	95577	18.21	-1.5
7	96134	18.31	-1.5
7	96691	18.41	-1.5
7	97248	18.51	-1.5
7	97805	18.61	-1.5
7	98362	18.71	-1.5
7	98919	18.81	-1.5
7	99476	18.91	-1.5
7	100041	19.01	-1.5
7	100598	19.11	-1.5
7	101155	19.21	-1.5
7	101712	19.31	-1.5
7	102269	19.41	-1.2657245815119
7	102826	19.51	-0.85377693481423
7	103383	19.61	-0.42439560038014
7	103940	19.71	0.011767371268903
7	104497	19.81	0.44464851836469
7	105054	19.91	0.86486384400589
7	105619	20.01	1.2637899041132
7	106176	20.11	1.5
7	106733	20.21	1.5
7	107290	20.31	1.5
7	107847	20.41	1.5
7	108404	20.51	1.5
7	108961	20.61	1.5
7	109518	20.71	1.5
7	110075	20.81	1.5
7	110632	20.91	1.5
7	111197	21.01	1.5
7	111754	21.11	1.5
7	112311	21.21	1.5
7	112868	21.31	1.5
7	113425	21.41	1.5
7	113982	21.51	1.5
7	114539	21.61	1.5
7	115096	21.71	1.5
7	115653	21.81	1.5
7	116210	21.91	1.2580915517757
7	116775	22.01	0.84625491634767
7	117332	22.11	0.41709956367446
7	117889	22.21	-0.01874716354331
7	118446	22.31	-0.45124369149482
7	119003	22.41	-0.87102520538662
7	119560	22.51	-1.2694848794604
7	120117	22.61	-1.5
7	120674	22.71	-1.5
7	121231	22.81	-1.5
7	121788	22.91	-1.5
7	122353	23.01	-1.5
7	122910	23.11	-1.5
7	123467	23.21	-1.5
7	124024	23.31	-1.5
7	124581	23.41	-1.5
7	125138	23.51	-1.5
7	125695	23.61	-1.5
7	126252	23.71	-1.5
7	126809	23.81	-1.5
7	127366	23.91	-1.5
7	127931	24.01	-1.5
7	128488	24.11	-1.5
7	129045	24.21	-1.5
7	129602	24.31	-1.5
7	130159	24.41	-1.2609239651136
7	130716	24.51	-0.84904615684721
7	131273	24.61	-0.41980696481297
7	131830	24.71	0.0161570994443
7	132387	24.81	0.44879633965842
7	132944	24.91	0.86873882266714
7	133509	25.01	1.267371555718
7	134066	25.11	1.5
7	134623	25.21	1.5
7	135180	25.31	1.5
7	135737	25.41	1.5
7	136294	25.51	1.5
7	136851	25.61	1.5
7	137408	25.71	1.5
7	137965	25.81	1.5
7	138522	25.91	1.5
7	139087	26.01	1.5
7	139644	26.11	1.5
7	140201	26.21	1.5
7	140758	26.31	1.5
7	141315	26.41	1.5
7	141872	26.51	1.5
7	142429	26.61	1.5
7	142986	26.71	1.5
7	143543	26.81	1.5
7	144100	26.91	1.259872851865
7	144665	27.01	0.84801032251606
7	145222	27.11	0.41880224309333
7	145779	27.21	-0.017118277439927
7	146336	27.31	-0.449704557082
7	146893	27.41	-0.86958730431672
7	147450	27.51	-1.2681558149805
7	148007	27.61	-1.5
7	148564	27.71	-1.5
7	149121	27.81	-1.5
7	149678	27.91	-1.5
7	150243	28.01	-1.5
7	150800	28.11	-1.5
7	151357	28.21	-1.5
7	151914	28.31	-1.5
7	152471	28.41	-1.5
7	153028	28.51	-1.5
7	153585	28.61	-1.5
7	154142	28.71	-1.5
7	154699	28.81	-1.5
7	155256	28.91	-1.5
7	155821	29.01	-1.5
7	156378	29.11	-1.5
7	156935	29.21	-1.5
7	157492	29.31	-1.5
7	158049	29.41	-1.2602629232498
7	158606	29.51	-0.84839472385467
7	159163	29.61	-0.41917509845132
7	159720	29.71	0.016761581288272
7	160277	29.81	0.44936751475921
7	160834	29.91	0.8692724301223
7	161399	30.01	1.2678647739114
7	161956	30.11	1.5
7	162513	30.21	1.5
7	163070	30.31	1.5
7	163627	30.41	1.5
7	164184	30.51	1.5
7	164741	30.61	1.5
7	165298	30.71	1.5
7	165855	30.81	1.5
7	166412	30.91	1.5
7	166977	31.01	1.5
7	167534	31.11	1.5
7	168091	31.21	1.5
7	168648	31.31	1.5
7	169205	31.41	1.5
7	169762	31.51	1.5
7	170319	31.61	1.5
7	170876	31.71	1.5
7	171433	31.81	1.5
7	171990	31.91	1.2601181665227
7	172555	32.01	0.84825207129943
7	173112	32.11	0.41903673064581
7	173669	32.21	-0.016893952361286
7	174226	32.31	-0.44949259223436
7	174783	32.41	-0.86938928093497
7	175340	32.51	-1.2679727801759
7	175897	32.61	-1.5
7	176454	32.71	-1.5
7	177011	32.81	-1.5
7	177568	32.91	-1.5
7	178133	33.01	-1.5
7	178690	33.11	-1.5
7	179247	33.21	-1.5
7	179804	33.31	-1.5
7	180361	33.41	-1.5
7	180918	33.51	-1.5
7	181475	33.61	-1.5
7	182032	33.71	-1.5
7	182589	33.81	-1.5
7	183146	33.91	-1.5
7	183711	34.01	-1.5
7	184268	34.11	-1.5
7	184825	34.21	-1.5
7	185382	34.31	-1.5
7	185939	34.41	-1.2601718862024
7	186496	34.51	-0.8483050101143
7	187053	34.61	-0.41908807937658
7	187610	34.71	0.01684482903692
7	188167	34.81	0.44944617558719
7	188724	34.91	0.86934591722818
7	189289	35.01	1.2679326987088
7	189846	35.11	1.5
7	190403	35.21	1.5
7	190960	35.31	1.5
7	191517	35.41	1.5
7	192074	35.51	1.5
7	192631	35.61	1.5
7	193188	35.71	1.5
7	193745	35.81	1.5
7	194302	35.91	1.5
7	194867	36.01	1.5
7	195424	36.11	1.5
7	195981	36.21	1.5
7	196538	36.31	1.5
7	197095	36.41	1.5
7	197652	36.51	1.5
7	198209	36.61	1.5
7	198766	36.71	1.5
7	199323	36.81	1.5
7	199880	36.91	1.2601519506581
7	200445	37.01	0.84828536435142
7	201002	37.11	0.4190690236989
7	201559	37.21	-0.016863058859194
7	202116	37.31	-0.44946340095288
7	202673	37.41	-0.86936200963796
7	203230	37.51	-1.267947573069
7	203787	37.61	-1.5
7	204344	37.71	-1.5
7	204901	37.81	-1.5
7	205458	37.91	-1.5
7	206023	38.01	-1.5
7	206580	38.11	-1.5
7	207137	38.21	-1.5
7	207694	38.31	-1.5
7	208251	38.41	-1.5
7	208808	38.51	-1.5
7	209365	38.61	-1.5
7	209922	38.71	-1.5
7	210479	38.81	-1.5
7	211036	38.91	-1.5
7	211601	39.01	-1.5
7	212158	39.11	-1.5
7	212715	39.21	-1.5
7	213272	39.31	-1.5
7	213829	39.41	-1.2601593487988
7	214386	39.51	-0.84829265495311
7	214943	39.61	-0.41907609531799
7	215500	39.71	0.016856293717773
7	216057	39.81	0.44945700856863
7	216614	39.91	0.86935603769736
7	217179	40.01	1.2679420531504
7	217736	40.11	1.5
7	218293	40.21	1.5
7	218850	40.31	1.5
7	219407	40.41	1.5
7	219964	40.51	1.5
7	220521	40.61	1.5
7	221078	40.71	1.5
7	221635	40.81	1.5
7	222192	40.91	1.5
7	222757	41.01	1.5
7	223314	41.11	1.5
7	223871	41.21	1.5
7	224428	41.31	1.5
7	224985	41.41	1.5
7	225542	41.51	1.5
7	226099	41.61	1.5
7	226656	41.71	1.5
7	227213	41.81	1.5
7	227770	41.91	1.2601566033294
7	228335	42.01	0.84828994939168
7	228892	42.11	0.41907347102163
7	229449	42.21	-0.016858804279352
7	230006	42.31	-0.44945938079898
7	230563	42.41	-0.86935825389997
7	231120	42.51	-1.2679441016066
7	231677	42.61	-1.5
7	232234	42.71	-1.5
7	232791	42.81	-1.5
7	233348	42.91	-1.5
7	233913	43.01	-1.5
7	234470	43.11	-1.5
7	235027	43.21	-1.5
7	235584	43.31	-1.5
7	236141	43.41	-1.5
7	236698	43.51	-1.5
7	237255	43.61	-1.5
7	237812	43.71	-1.5
7	238369	43.81	-1.5
7	238926	43.91	-1.5
7	239491	44.01	-1.5
7	240048	44.11	-1.5
7	240605	44.21	-1.5
7	241162	44.31	-1.5
7	241719	44.41	-1.2601576221806
7	242276	44.51	-0.84829095343307
7	242833	44.61	-0.4190744449053
7	243390	44.71	0.016857872603055
7	243947	44.81	0.44945850045782
7	244504	44.91	0.86935743146108
7	245069	45.01	1.2679433414188
7	245626	45.11	1.5
7	246183	45.21	1.5
7	246740	45.31	1.5
7	247297	45.41	1.5
7	247854	45.51	1.5
7	248411	45.61	1.5
7	248968	45.71	1.5
7	249525	45.81	1.5
7	250082	45.91	1.5
7	250647	46.01	1.5
7	251204	46.11	1.5
7	251761	46.21	1.5
7	252318	46.31	1.5
7	252875	46.41	1.5
7	253432	46.51	1.5
7	253989	46.61	1.5
7	254546	46.71	1.5
7	255103	46.81	1.5
7	255660	46.91	1.2601572440835
7	256225	47.01	0.84829058083191
7	256782	47.11	0.4190740834959
7	257339	47.21	-0.016858218349064
7	257896	47.31	-0.44945882715312
7	258453	47.41	-0.86935773666856
7	259010	47.51	-1.2679436235247
7	259567	47.61	-1.5
7	260124	47.71	-1.5
7	260681	47.81	-1.5
7	261238	47.91	-1.5
7	261803	48.01	-1.5
7	262360	48.11	-1.5
7	262917	48.21	-1.5
7	263474	48.31	-1.5
7	264031	48.41	-1.5
7	264588	48.51	-1.5
7	265145	48.61	-1.5
7	265702	48.71	-1.5
7	266259	48.81	-1.5
7	266816	48.91	-1.5
7	267381	49.01	-1.5
7	267938	49.11	-1.5
7	268495	49.21	-1.5
7	269052	49.31	-1.5
7	269609	49.41	-1.2601573843962
7	270166	49.51	-0.84829071910526
7	270723	49.61	-0.41907421761606
7	271280	49.71	0.016858090041566
7	271837	49.81	0.44945870591538
7	272394	49.91	0.86935762340491
7	272959	50.01	1.2679435188339
7	273516	50.11	1.5
7	274073	50.21	1.5
7	274630	50.31	1.5
7	275187	50.41	1.5
7	275744	50.51	1.5
7	276301	50.61	1.5
7	276858	50.71	1.5
7	277415	50.81	1.5
7	277972	50.91	1.5
7	278537	51.01	1.5
7	279094	51.11	1.5
7	279651	51.21	1.5
7	280208	51.31	1.5
7	280765	51.41	1.5
7	281322	51.51	1.5
7	281879	51.61	1.5
7	282436	51.71	1.5
7	282993	51.81	1.5
7	283550	51.91	1.260157332327
7	284115	52.01	0.84829066779295
7	284672	52.11	0.419074167845
7	285229	52.21	-0.016858137655568
7	285786	52.31	-0.44945875090573
7	286343	52.41	-0.86935766543608
7	286900	52.51	-1.2679435576837
7	287457	52.61	-1.5
7	288014	52.71	-1.5
7	288571	52.81	-1.5
7	289128	52.91	-1.5
7	289693	53.01	-1.5
7	290250	53.11	-1.5
7	290807	53.21	-1.5
7	291364	53.31	-1.5
7	291921	53.41	-1.5
7	292478	53.51	-1.5
7	293035	53.61	-1.5
7	293592	53.71	-1.5
7	294149	53.81	-1.5
7	294706	53.91	-1.5
7	295271	54.01	-1.5
7	295828	54.11	-1.5
7	296385	54.21	-1.5
7	296942	54.31	-1.5
7	297499	54.41	-1.2601573516453
7	298056	54.51	-0.84829068683017
7	298613	54.61	-0.41907418631014
7	299170	54.71	0.016858119990928
7	299727	54.81	0.44945873421474
7	300284	54.91	0.86935764984327
7	300849	55.01	1.2679435432715
7	301406	55.11	1.5
7	301963	55.21	1.5
7	302520	55.31	1.5
7	303077	55.41	1.5
7	303634	55.51	1.5
7	304191	55.61	1.5
7	304748	55.71	1.5
7	305305	55.81	1.5
7	305862	55.91	1.5
7	306427	56.01	1.5
7	306984	56.11	1.5
7	307541	56.21	1.5
7	308098	56.31	1.5
7	308655	56.41	1.5
7	309212	56.51	1.5
7	309769	56.61	1.5
7	310326	56.71	1.5
7	310883	56.81	1.5
7	311440	56.91	1.2601573444819
7	312005	57.01	0.84829067977122
7	312562	57.11	0.4190741794636
7	313119	57.21	-0.016858126540441
7	313676	57.31	-0.44945874040307
7	314233	57.41	-0.86935765562437
7	314790	57.51	-1.2679435486148
7	315347	57.61	-1.5
7	315904	57.71	-1.5
7	316461	57.81	-1.5
7	317018	57.91	-1.5
7	317583	58.01	-1.5
7	318140	58.11	-1.5
7	318697	58.21	-1.5
7	319254	58.31	-1.5
7	319811	58.41	-1.5
7	320368	58.51	-1.5
7	320925	58.61	-1.5
7	321482	58.71	-1.5
7	322039	58.81	-1.5
7	322596	58.91	-1.5
7	323161	59.01	-1.5
7	323718	59.11	-1.5
7	324275	59.21	-1.5
7	324832	59.31	-1.5
7	325389	59.41	-1.2601573471354
7	325946	59.51	-0.84829068238595
7	326503	59.61	-0.41907418199951
7	327060	59.71	0.016858124114577
7	327617	59.81	0.44945873811093
7	328174	59.91	0.86935765348301
6	232	1.11	-1.8587371641843e-07
6	788	1.21	-3.7715039979958e-07
6	1344	1.31	-5.2730015909219e-07
6	1900	1.41	-6.4101826069418e-07
6	2456	1.51	-7.2280812446479e-07
6	3012	1.61	-7.7694011224594e-07
6	3568	1.71	-8.0741315855448e-07
6	4124	1.81	-8.1792990158647e-07
6	4680	1.91	-8.1188602507609e-07
6	5244	2.01	-7.9236670558203e-07
6	5800	2.11	-7.6214163868826e-07
6	6356	2.21	-7.2367640768789e-07
6	6912	2.31	-6.7914172063865e-07
6	7468	2.41	-6.3042691067494e-07
6	8024	2.51	-5.791562784907e-07
6	8580	2.61	-5.2670969807878e-07
6	9136	2.71	-4.7423895921384e-07
6	9692	2.81	-4.226883731917e-07
6	10248	2.91	-3.7281679965417e-07
6	10812	3.01	-3.2521825232834e-07
6	11368	3.11	-2.8033753096679e-07
6	11924	3.21	-2.3849224817241e-07
6	12480	3.31	-1.9988561916762e-07
6	13036	3.41	-1.6463133079014e-07
6	13592	3.51	-1.3275709420668e-07
6	14148	3.61	-1.0422880336591e-07
6	14704	3.71	-7.8954798254927e-08
6	15260	3.81	-5.6805049553077e-08
6	15816	3.91	-3.7617553516611e-08
6	16380	4.01	-2.1201884692346e-08
6	16936	4.11	-7.354117315117e-09
6	17492	4.21	4.1374903503311e-09
6	18048	4.31	1.3491074923877e-08
6	18604	4.41	2.0921930854456e-08
6	19160	4.51	2.6641799877325e-08
6	19716	4.61	3.0856028843118e-08
6	20272	4.71	3.3759306461434e-08
6	20828	4.81	3.5534952758098e-08
6	21384	4.91	3.6354919075166e-08
6	21949	5.01	3.6375524814503e-08
6	22506	5.11	0.0068264645847194
6	23063	5.21	0.074594848256737
6	23620	5.31	0.19005135781356
6	24177	5.41	0.34050273679327
6	24734	5.51	0.51301639903159
6	25291	5.61	0.69025459358016
6	25848	5.71	0.8357267325124
6	26405	5.81	0.95506455436478
6	26962	5.91	1.0529631336311
6	27527	6.01	1.1332740666944
6	28084	6.11	1.1991570040927
6	28641	6.21	1.2532039597787
6	29198	6.31	1.2975412879882
6	29755	6.41	1.3339133398063
6	30312	6.51	1.3635927262982
6	30869	6.61	1.370205363024
6	31426	6.71	1.3272611941339
6	31983	6.81	1.237381093641
6	32540	6.91	1.1040433769786
6	33105	7.01	0.9314709214955
6	33662	7.11	0.72451590696545
6	34219	7.21	0.48854318469935
6	34776	7.31	0.22931329740459
6	35333	7.41	-0.044839397355645
6	35890	7.51	-0.30626147357466
6	36447	7.61	-0.52071862935179
6	37004	7.71	-0.69664819248914
6	37561	7.81	-0.84097171050672
6	38118	7.91	-0.95936726314534
6	38683	8.01	-1.0564928534642
6	39240	8.11	-1.1361696663563
6	39797	8.21	-1.2015324043531
6	40354	8.31	-1.255152615343
6	40911	8.41	-1.299139864269
6	41468	8.51	-1.3352247291408
6	42025	8.61	-1.3648268866902
6	42582	8.71	-1.3891109663092
6	43139	8.81	-1.4090323697367
6	43696	8.91	-1.4253748591699
6	44261	9.01	-1.4387813925914
6	44818	9.11	-1.4497794194909
6	45375	9.21	-1.4588016321618
6	45932	9.31	-1.466202988987
6	46489	9.41	-1.4722746794739
6	47046	9.51	-1.469624914661
6	47603	9.61	-1.3967850638842
6	48160	9.71	-1.2587757640922
6	48717	9.81	-1.0660952217464
6	49274	9.91	-0.82923335013376
6	49839	10.01	-0.55852907828324
6	50396	10.11	-0.26404116063858
6	50953	10.21	0.039432698787323
6	51510	10.31	0.30182609759564
6	52067	10.41	0.51708007620732
6	52624	10.51	0.69366331160268
6	53181	10.61	0.83852306854624
6	53738	10.71	0.95735852387477
6	54295	10.81	1.0548449876183
6	54852	10.91	1.1348178424115
6	55417	11.01	1.2004234378772
6	55974	11.11	1.2542428765791
6	56531	11.21	1.2983935616198
6	57088	11.31	1.3346125010308
6	57645	11.41	1.3643246463992
6	58202	11.51	1.3886989543394
6	58759	11.61	1.4086943764177
6	59316	11.71	1.425097586926
6	59873	11.81	1.4385539327783
6	60430	11.91	1.434562737289
6	60995	12.01	1.3623449188863
6	61552	12.11	1.229987565462
6	62109	12.21	1.0461448397947
6	62666	12.31	0.81967864250814
6	63223	12.41	0.55952045906622
6	63780	12.51	0.27454262951352
6	64337	12.61	-0.022341644856283
6	64894	12.71	-0.28780548056062
6	65451	12.81	-0.50557828686024
6	66008	12.91	-0.68422783826705
6	66573	13.01	-0.83078269403671
6	67130	13.11	-0.95100872080636
6	67687	13.21	-1.049635937467
6	68244	13.31	-1.1305446069755
6	68801	13.41	-1.1969178964527
6	69358	13.51	-1.2513671116331
6	69915	13.61	-1.2960344327361
6	70472	13.71	-1.3326771936626
6	71029	13.81	-1.3627370202911
6	71586	13.91	-1.3873965479604
6	72151	14.01	-1.4076259495589
6	72708	14.11	-1.4242211047687
6	73265	14.21	-1.4378349121301
6	73822	14.31	-1.4490029758548
6	74379	14.41	-1.4542593951845
6	74936	14.51	-1.4067454390002
6	75493	14.61	-1.2938574955257
6	76050	14.71	-1.1248409052179
6	76607	14.81	-0.90912582141769
6	77164	14.91	-0.65618298375156
6	77729	15.01	-0.37539052552589
6	78286	15.11	-0.078063005077667
6	78843	15.21	0.20543869668828
6	79400	15.31	0.43800883574505
6	79957	15.41	0.62879735392087
6	80514	15.51	0.78531039044307
6	81071	15.61	0.91370559386164
6	81628	15.71	1.0190343806975
6	82185	15.81	1.1054406719069
6	82742	15.91	1.1763239259999
6	83307	16.01	1.2344728829831
6	83864	16.11	1.2821752809849
6	84421	16.21	1.3213078620858
6	84978	16.31	1.353410208462
6	85535	16.41	1.3797453137336
6	86092	16.51	1.4013492725695
6	86649	16.61	1.4190720434712
6	87206	16.71	1.4336108884486
6	87763	16.81	1.4455378052077
6	88320	16.91	1.4502949065331
6	88885	17.01	1.3935559567543
6	89442	17.11	1.2733368701461
6	89999	17.21	1.0986742440551
6	90556	17.31	0.8787967659174
6	91113	17.41	0.6229832927616
6	91670	17.51	0.34043137853601
6	92227	17.61	0.043031849082098
6	92784	17.71	-0.23417644595227
6	93341	17.81	-0.46158379949475
6	93898	17.91	-0.64813703535265
6	94463	18.01	-0.80117566522517
6	95020	18.11	-0.92672064505592
6	95577	18.21	-1.0297112558185
6	96134	18.31	-1.114199428261
6	96691	18.41	-1.1835091568827
6	97248	18.51	-1.2403672749222
6	97805	18.61	-1.2870107353905
6	98362	18.71	-1.3252746188861
6	98919	18.81	-1.3566643306582
6	99476	18.91	-1.3824148273436
6	100041	19.01	-1.4035392035204
6	100598	19.11	-1.420868549603
6	101155	19.21	-1.4350846492
6	101712	19.31	-1.4467468023348
6	102269	19.41	-1.4517201941764
6	102826	19.51	-1.3984004323881
6	103383	19.61	-1.2808993810083
6	103940	19.71	-1.1083308503771
6	104497	19.81	-0.88999806036725
6	105054	19.91	-0.63525086466711
6	105619	20.01	-0.35335363991251
6	106176	20.11	-0.055983891306255
6	106733	20.21	0.22355126013451
6	107290	20.31	0.45286744637352
6	107847	20.41	0.64098658988883
6	108404	20.51	0.7953098094454
6	108961	20.61	0.92190860023962
6	109518	20.71	1.025763703035
6	110075	20.81	1.110961060045
6	110632	20.91	1.1808525670219
6	111197	21.01	1.2381879459468
6	111754	21.11	1.2852229265718
6	112311	21.21	1.3238079929607
6	112868	21.31	1.3554611865736
6	113425	21.41	1.3814278301389
6	113982	21.51	1.4027295220423
6	114539	21.61	1.4202043287803
6	115096	21.71	1.4345397567773
6	115653	21.81	1.4462998007623
6	116210	21.91	1.4512038299465
6	116775	22.01	1.3966149622043
6	117332	22.11	1.2781048258539
6	117889	22.21	1.104758616826
6	118446	22.31	0.88585193074024
6	119003	22.41	0.63070830476164
6	119560	22.51	0.34856734381066
6	120117	22.61	0.0511856543703
6	120674	22.71	-0.2274874856468
6	121231	22.81	-0.45609652228009
6	121788	22.91	-0.64363555681837
6	122353	23.01	-0.79748288496049
6	122910	23.11	-0.9236912790449
6	123467	23.21	-1.0272261205607
6	124024	23.31	-1.1121607517772
6	124581	23.41	-1.1818367320956
6	125138	23.51	-1.2389953040916
6	125695	23.61	-1.2858852414524
6	126252	23.71	-1.3243513218463
6	126809	23.81	-1.355906905502
6	127366	23.91	-1.3817934749042
6	127931	24.01	-1.403029478103
6	128488	24.11	-1.4204503972238
6	129045	24.21	-1.4347416186069
6	129602	24.31	-1.4464653977718
6	130159	24.41	-1.4513952146871
6	130716	24.51	-1.397277320676
6	131273	24.61	-1.2791416668563
6	131830	24.71	-1.1060840673032
6	132387	24.81	-0.88739036841687
6	132944	24.91	-0.63239387292811
6	133509	25.01	-0.35034337811126
6	134066	25.11	-0.052966136912147
6	134623	25.21	0.22602686982154
6	135180	25.31	0.45489830857193
6	135737	25.41	0.64265260423966
6	136294	25.51	0.7966765214853
6	136851	25.61	0.92302978013734
6	137408	25.71	1.0266834610576
6	137965	25.81	1.1117155819754
6	138522	25.91	1.1814715378058
6	139087	26.01	1.2386957175771
6	139644	26.11	1.2856394761641
6	140201	26.21	1.3241497087101
6	140758	26.31	1.3557415125085
6	141315	26.41	1.3816577950429
6	141872	26.51	1.4029181733591
6	142429	26.61	1.4203590885664
6	142986	26.71	1.4346667137048
6	143543	26.81	1.4464039496623
6	144100	26.91	1.4513241957715
6	144665	27.01	1.3970315218245
6	145222	27.11	1.2787568961947
6	145779	27.21	1.1055921925461
6	146336	27.31	0.8868194531928
6	146893	27.41	0.63176835684402
6	147450	27.51	0.34968428947408
6	148007	27.61	0.052305397196051
6	148564	27.71	-0.22656890652399
6	149121	27.81	-0.45534296745871
6	149678	27.91	-0.64301737940156
6	150243	28.01	-0.79697576417033
6	150800	28.11	-0.92327526336575
6	151357	28.21	-1.0268848428062
6	151914	28.31	-1.1118807851517
6	152471	28.41	-1.1816070619503
6	153028	28.51	-1.2388068945782
6	153585	28.61	-1.2857306800278
6	154142	28.71	-1.3242245276466
6	154699	28.81	-1.3558028900952
6	155256	28.91	-1.3817081460417
6	155821	29.01	-1.4029594787168
6	156378	29.11	-1.4203929733462
6	156935	29.21	-1.4346945110262
6	157492	29.31	-1.446426753148
6	158049	29.41	-1.4513505510308
6	158606	29.51	-1.3971227384744
6	159163	29.61	-1.2788996857282
6	159720	29.71	-1.1057747287524
6	160277	29.81	-0.88703132157306
6	160834	29.91	-0.63200048778214
6	161399	30.01	-0.34992887929945
6	161956	30.11	-0.052550599747292
6	162513	30.21	0.22636775502605
6	163070	30.31	0.45517795316883
6	163627	30.41	0.64288201020943
6	164184	30.51	0.79686471428317
6	164741	30.61	0.92318416377992
6	165298	30.71	1.0268101094155
6	165855	30.81	1.1118194777403
6	166412	30.91	1.181556768519
6	166977	31.01	1.2387656364474
6	167534	31.11	1.2856968339904
6	168091	31.21	1.3241967621056
6	168648	31.31	1.3557801126808
6	169205	31.41	1.3816894606293
6	169762	31.51	1.4029441501705
6	170319	31.61	1.4203803985993
6	170876	31.71	1.434684195354
6	171433	31.81	1.4464182907048
6	171990	31.91	1.4513407705138
6	172555	32.01	1.3970888876891
6	173112	32.11	1.2788466960821
6	173669	32.21	1.1057069889901
6	174226	32.31	0.88695269654835
6	174783	32.41	0.63191434325702
6	175340	32.51	0.3498381112415
6	175897	32.61	0.052459604304289
6	176454	32.71	-0.22644240298533
6	177011	32.81	-0.45523919049515
6	177568	32.91	-0.64293224614715
6	178133	33.01	-0.79690592524955
6	178690	33.11	-0.92321797112547
6	179247	33.21	-1.0268378432137
6	179804	33.31	-1.1118422291148
6	180361	33.41	-1.1815754325717
6	180918	33.51	-1.2387809474724
6	181475	33.61	-1.2857093943644
6	182032	33.71	-1.3242070659885
6	182589	33.81	-1.3557885654535
6	183146	33.91	-1.3816963948479
6	183711	34.01	-1.4029498386442
6	184268	34.11	-1.4203850651299
6	184825	34.21	-1.4346880235344
6	185382	34.31	-1.4464214311445
6	185939	34.41	-1.4513444000933
6	186496	34.51	-1.3971014498217
6	187053	34.61	-1.2788663607076
6	187610	34.71	-1.1057321274301
6	188167	34.81	-0.88698187454312
6	188724	34.91	-0.63194631176131
6	189289	35.01	-0.34987179555372
6	189846	35.11	-0.052493373000573
6	190403	35.21	0.22641470089155
6	190960	35.31	0.45521646513009
6	191517	35.41	0.64291360343205
6	192074	35.51	0.79689063173021
6	192631	35.61	0.92320542511359
6	193188	35.71	1.0268275511145
6	193745	35.81	1.1118337860083
6	194302	35.91	1.1815685062835
6	194867	36.01	1.2387752655023
6	195424	36.11	1.2857047331693
6	195981	36.21	1.3242032421843
6	196538	36.31	1.3557854286027
6	197095	36.41	1.3816938215371
6	197652	36.51	1.4029477276331
6	198209	36.61	1.4203833333653
6	198766	36.71	1.4346866028845
6	199323	36.81	1.4464202657166
6	199880	36.91	1.4513430531451
6	200445	37.01	1.397096787975
6	201002	37.11	1.2788590631018
6	201559	37.21	1.105722798475
6	202116	37.31	0.88697104649569
6	202673	37.41	0.63193444814758
6	203230	37.51	0.34985929519777
6	203787	37.61	0.052480841328872
6	204344	37.71	-0.22642498122849
6	204901	37.81	-0.4552248985874
6	205458	37.91	-0.64292052180548
6	206023	38.01	-0.79689630720523
6	206580	38.11	-0.92321008097898
6	207137	38.21	-1.0268313705467
6	207694	38.31	-1.1118369192744
6	208251	38.41	-1.1815710766527
6	208808	38.51	-1.2387773741011
6	209365	38.61	-1.2857064629564
6	209922	38.71	-1.3242046612127
6	210479	38.81	-1.3557865927005
6	211036	38.91	-1.3816947765022
6	211601	39.01	-1.4029485110377
6	212158	39.11	-1.4203839760292
6	212715	39.21	-1.4346871300937
6	213272	39.31	-1.4464206982126
6	213829	39.41	-1.4513435530041
6	214386	39.51	-1.3970985180023
6	214943	39.61	-1.278861771268
6	215500	39.71	-1.1057262604808
6	216057	39.81	-0.88697506482021
6	216614	39.91	-0.63193885077268
6	217179	40.01	-0.34986393411884
6	217736	40.11	-0.052485491870868
6	218293	40.21	0.22642116616325
6	218850	40.31	0.455221768906
6	219407	40.41	0.64291795437512
6	219964	40.51	0.79689420101801
6	220521	40.61	0.92320835317281
6	221078	40.71	1.0268299531432
6	221635	40.81	1.1118357565088
6	222192	40.91	1.1815701227796
6	222757	41.01	1.2387765915925
6	223314	41.11	1.2857058210251
6	223871	41.21	1.3242041346054
6	224428	41.31	1.3557861606998
6	224985	41.41	1.3816944221119
6	225542	41.51	1.4029482203135
6	226099	41.61	1.4203837375341
6	226656	41.71	1.434686934445
6	227213	41.81	1.4464205377131
6	227770	41.91	1.4513433675056
6	228335	42.01	1.3970978759843
6	228892	42.11	1.27886076626
6	229449	42.21	1.1057249757201
6	230006	42.31	0.88697357360843
6	230563	42.41	0.63193721694788
6	231120	42.51	0.34986221260453
6	231677	42.61	0.052483766043565
6	232234	42.71	-0.22642258194239
6	232791	42.81	-0.45522293033713
6	233348	42.91	-0.64291890715467
6	233913	43.01	-0.79689498262923
6	234470	43.11	-0.92320899436658
6	235027	43.21	-1.0268304791452
6	235584	43.31	-1.1118361880143
6	236141	43.41	-1.1815704767656
6	236698	43.51	-1.2387768819849
6	237255	43.61	-1.2857060592488
6	237812	43.71	-1.3242043300316
6	238369	43.81	-1.3557863210153
6	238926	43.91	-1.381694553627
6	239491	44.01	-1.4029483282016
6	240048	44.11	-1.4203838260407
6	240605	44.21	-1.4346870070497
6	241162	44.31	-1.4464205972743
6	241719	44.41	-1.451343436343
6	242276	44.51	-1.3970981142386
6	242833	44.61	-1.2788611392217
6	243390	44.71	-1.1057254524992
6	243947	44.81	-0.88697412700114
6	244504	44.91	-0.63193782326465
6	245069	45.01	-0.34986285146203
6	245626	45.11	-0.052484406501208
6	246183	45.21	0.22642205654364
6	246740	45.31	0.45522249932759
6	247297	45.41	0.64291855357581
6	247854	45.51	0.79689469257076
6	248411	45.61	0.92320875641718
6	248968	45.71	1.0268302839435
6	249525	45.81	1.11183602788
6	250082	45.91	1.1815703453983
6	250647	46.01	1.2387767742169
6	251204	46.11	1.2857059708395
6	251761	46.21	1.3242042575051
6	252318	46.31	1.3557862615187
6	252875	46.41	1.3816945048191
6	253432	46.51	1.4029482881632
6	253989	46.61	1.4203837931959
6	254546	46.71	1.4346869801066
6	255103	46.81	1.4464205751715
6	255660	46.91	1.4513434107982
6	256225	47.01	1.3970980258208
6	256782	47.11	1.278861000813
6	257339	47.21	1.1057252755641
6	257896	47.31	0.88697392163439
6	258453	47.41	0.63193759825779
6	259010	47.51	0.34986261438021
6	259567	47.61	0.052484168826794
6	260124	47.71	-0.2264222515187
6	260681	47.81	-0.45522265927502
6	261238	47.91	-0.64291868478819
6	261803	48.01	-0.79689480021159
6	262360	48.11	-0.92320884471988
6	262917	48.21	-1.0268303563826
6	263474	48.31	-1.1118360873056
6	264031	48.41	-1.181570394148
6	264588	48.51	-1.2387768142098
6	265145	48.61	-1.2857060036488
6	265702	48.71	-1.3242042844205
6	266259	48.81	-1.3557862835988
6	266816	48.91	-1.3816945229308
6	267381	49.01	-1.4029483030207
6	267938	49.11	-1.4203838053838
6	268495	49.21	-1.434686990104
6	269052	49.31	-1.4464205833725
6	269609	49.41	-1.4513434202762
6	270166	49.51	-1.3970980586322
6	270723	49.61	-1.278861052176
6	271280	49.71	-1.1057253412254
6	271837	49.81	-0.88697399784579
6	272394	49.91	-0.63193768175651
6	272959	50.01	-0.34986270236033
6	273516	50.11	-0.052484257028595
6	274073	50.21	0.22642217916342
6	274630	50.31	0.45522259991841
6	275187	50.41	0.64291863609398
6	275744	50.51	0.79689476026559
6	276301	50.61	0.92320881195036
6	276858	50.71	1.0268303294993
6	277415	50.81	1.1118360652517
6	277972	50.91	1.1815703760554
6	278537	51.01	1.2387767993658
6	279094	51.11	1.2857059914715
6	279651	51.21	1.3242042744295
6	280208	51.31	1.3557862754034
6	280765	51.41	1.3816945162091
6	281322	51.51	1.4029482975062
6	281879	51.61	1.4203838008591
6	282436	51.71	1.4346869863921
6	282993	51.81	1.4464205803264
6	283550	51.91	1.4513434167576
6	284115	52.01	1.3970980464549
6	284672	52.11	1.2788610331157
6	285229	52.21	1.105725316858
6	285786	52.31	0.88697396956405
6	286343	52.41	0.63193765077045
6	286900	52.51	0.3498626697116
6	287457	52.61	0.052484224296734
6	288014	52.71	-0.22642220601483
6	288571	52.81	-0.45522262194666
6	289128	52.91	-0.64291865416592
6	289693	53.01	-0.79689477509106
6	290250	53.11	-0.92320882411272
6	290807	53.21	-1.0268303394788
6	291364	53.31	-1.1118360734393
6	291921	53.41	-1.1815703827729
6	292478	53.51	-1.2387768048775
6	293035	53.61	-1.2857059959934
6	293592	53.71	-1.32420427814
6	294149	53.81	-1.3557862784467
6	294706	53.91	-1.3816945187052
6	295271	54.01	-1.4029482995547
6	295828	54.11	-1.4203838025402
6	296385	54.21	-1.4346869877713
6	296942	54.31	-1.4464205814591
6	297499	54.41	-1.451343418065
6	298056	54.51	-1.3970980509761
6	298613	54.61	-1.2788610401898
6	299170	54.71	-1.1057253259004
6	299727	54.81	-0.88697398005948
6	300284	54.91	-0.63193766226988
6	300849	55.01	-0.34986268182706
6	301406	55.11	-0.052484236442041
6	301963	55.21	0.22642219605302
6	302520	55.31	0.455222613774
6	303077	55.41	0.64291864746124
6	303634	55.51	0.79689476959004
6	304191	55.61	0.92320881960006
6	304748	55.71	1.0268303357755
6	305305	55.81	1.1118360704003
6	305862	55.91	1.1815703802796
6	306427	56.01	1.2387768028326
6	306984	56.11	1.2857059943151
6	307541	56.21	1.3242042767622
6	308098	56.31	1.3557862773162
6	308655	56.41	1.3816945177773
6	309212	56.51	1.4029482987922
6	309769	56.61	1.4203838019135
6	310326	56.71	1.4346869872561
6	310883	56.81	1.4464205810363
6	311440	56.91	1.4513434175775
6	312005	57.01	1.3970980492964
6	312562	57.11	1.2788610375644
6	313119	57.21	1.1057253225459
6	313676	57.31	0.88697397616713
6	314233	57.41	0.6319376580052
6	314790	57.51	0.3498626773343
6	315347	57.61	0.05248423193791
6	315904	57.71	-0.22642219974713
6	316461	57.81	-0.45522261680375
6	317018	57.91	-0.64291864994814
6	317583	58.01	-0.79689477163001
6	318140	58.11	-0.9232088212741
6	318697	58.21	-1.0268303371497
6	319254	58.31	-1.111836071528
6	319811	58.41	-1.1815703812047
6	320368	58.51	-1.2387768035921
6	320925	58.61	-1.285705994939
6	321482	58.71	-1.3242042772745
6	322039	58.81	-1.3557862777375
6	322596	58.91	-1.3816945181233
6	323161	59.01	-1.4029482990772
6	323718	59.11	-1.420383802148
6	324275	59.21	-1.4346869874494
6	324832	59.31	-1.4464205811933
6	325389	59.41	-1.4513434177587
6	325946	59.51	-1.3970980499202
6	326503	59.61	-1.2788610385371
6	327060	59.71	-1.1057253237887
6	327617	59.81	-0.88697397760811
6	328174	59.91	-0.63193765958403
5	232	1.11	36.55
5	788	1.21	36.55
5	1344	1.31	36.55
5	1900	1.41	36.55
5	2456	1.51	36.55
5	3012	1.61	36.55
5	3568	1.71	36.55
5	4124	1.81	36.55
5	4680	1.91	36.55
5	5244	2.01	36.55
5	5800	2.11	36.55
5	6356	2.21	36.55
5	6912	2.31	36.55
5	7468	2.41	36.55
5	8024	2.51	36.55
5	8580	2.61	36.55
5	9136	2.71	36.55
5	9692	2.81	36.55
5	10248	2.91	36.55
5	10812	3.01	36.55
5	11368	3.11	36.55
5	11924	3.21	36.55
5	12480	3.31	36.55
5	13036	3.41	36.55
5	13592	3.51	36.55
5	14148	3.61	36.55
5	14704	3.71	36.55
5	15260	3.81	36.55
5	15816	3.91	36.55
5	16380	4.01	36.55
5	16936	4.11	36.55
5	17492	4.21	36.55
5	18048	4.31	36.55
5	18604	4.41	36.55
5	19160	4.51	36.55
5	19716	4.61	36.55
5	20272	4.71	36.55
5	20828	4.81	36.55
5	21384	4.91	36.55
5	21949	5.01	36.55
5	22506	5.11	36.55
5	23063	5.21	36.55
5	23620	5.31	36.55
5	24177	5.41	36.55
5	24734	5.51	36.55
5	25291	5.61	36.55
5	25848	5.71	36.55
5	26405	5.81	36.55
5	26962	5.91	36.55
5	27527	6.01	36.55
5	28084	6.11	36.55
5	28641	6.21	36.55
5	29198	6.31	36.55
5	29755	6.41	36.55
5	30312	6.51	36.55
5	30869	6.61	36.55
5	31426	6.71	36.55
5	31983	6.81	36.55
5	32540	6.91	36.55
5	33105	7.01	36.55
5	33662	7.11	36.55
5	34219	7.21	36.55
5	34776	7.31	36.55
5	35333	7.41	36.55
5	35890	7.51	36.55
5	36447	7.61	36.55
5	37004	7.71	36.55
5	37561	7.81	36.55
5	38118	7.91	36.55
5	38683	8.01	36.55
5	39240	8.11	36.55
5	39797	8.21	36.55
5	40354	8.31	36.55
5	40911	8.41	36.55
5	41468	8.51	36.55
5	42025	8.61	36.55
5	42582	8.71	36.55
5	43139	8.81	36.55
5	43696	8.91	36.55
5	44261	9.01	36.55
5	44818	9.11	36.55
5	45375	9.21	36.55
5	45932	9.31	36.55
5	46489	9.41	36.55
5	47046	9.51	36.55
5	47603	9.61	36.55
5	48160	9.71	36.55
5	48717	9.81	36.55
5	49274	9.91	36.55
5	49839	10.01	36.55
5	50396	10.11	36.55
5	50953	10.21	36.55
5	51510	10.31	36.55
5	52067	10.41	36.55
5	52624	10.51	36.55
5	53181	10.61	36.55
5	53738	10.71	36.55
5	54295	10.81	36.55
5	54852	10.91	36.55
5	55417	11.01	36.55
5	55974	11.11	36.55
5	56531	11.21	36.55
5	57088	11.31	36.55
5	57645	11.41	36.55
5	58202	11.51	36.55
5	58759	11.61	36.55
5	59316	11.71	36.55
5	59873	11.81	36.55
5	60430	11.91	36.55
5	60995	12.01	36.55
5	61552	12.11	36.55
5	62109	12.21	36.55
5	62666	12.31	36.55
5	63223	12.41	36.55
5	63780	12.51	36.55
5	64337	12.61	36.55
5	64894	12.71	36.55
5	65451	12.81	36.55
5	66008	12.91	36.55
5	66573	13.01	36.55
5	67130	13.11	36.55
5	67687	13.21	36.55
5	68244	13.31	36.55
5	68801	13.41	36.55
5	69358	13.51	36.55
5	69915	13.61	36.55
5	70472	13.71	36.55
5	71029	13.81	36.55
5	71586	13.91	36.55
5	72151	14.01	36.55
5	72708	14.11	36.55
5	73265	14.21	36.55
5	73822	14.31	36.55
5	74379	14.41	36.55
5	74936	14.51	36.55
5	75493	14.61	36.55
5	76050	14.71	36.55
5	76607	14.81	36.55
5	77164	14.91	36.55
5	77729	15.01	36.55
5	78286	15.11	36.55
5	78843	15.21	36.55
5	79400	15.31	36.55
5	79957	15.41	36.55
5	80514	15.51	36.55
5	81071	15.61	36.55
5	81628	15.71	36.55
5	82185	15.81	36.55
5	82742	15.91	36.55
5	83307	16.01	36.55
5	83864	16.11	36.55
5	84421	16.21	36.55
5	84978	16.31	36.55
5	85535	16.41	36.55
5	86092	16.51	36.55
5	86649	16.61	36.55
5	87206	16.71	36.55
5	87763	16.81	36.55
5	88320	16.91	36.55
5	88885	17.01	36.55
5	89442	17.11	36.55
5	89999	17.21	36.55
5	90556	17.31	36.55
5	91113	17.41	36.55
5	91670	17.51	36.55
5	92227	17.61	36.55
5	92784	17.71	36.55
5	93341	17.81	36.55
5	93898	17.91	36.55
5	94463	18.01	36.55
5	95020	18.11	36.55
5	95577	18.21	36.55
5	96134	18.31	36.55
5	96691	18.41	36.55
5	97248	18.51	36.55
5	97805	18.61	36.55
5	98362	18.71	36.55
5	98919	18.81	36.55
5	99476	18.91	36.55
5	100041	19.01	36.55
5	100598	19.11	36.55
5	101155	19.21	36.55
5	101712	19.31	36.55
5	102269	19.41	36.55
5	102826	19.51	36.55
5	103383	19.61	36.55
5	103940	19.71	36.55
5	104497	19.81	36.55
5	105054	19.91	36.55
5	105619	20.01	36.55
5	106176	20.11	36.55
5	106733	20.21	36.55
5	107290	20.31	36.55
5	107847	20.41	36.55
5	108404	20.51	36.55
5	108961	20.61	36.55
5	109518	20.71	36.55
5	110075	20.81	36.55
5	110632	20.91	36.55
5	111197	21.01	36.55
5	111754	21.11	36.55
5	112311	21.21	36.55
5	112868	21.31	36.55
5	113425	21.41	36.55
5	113982	21.51	36.55
5	114539	21.61	36.55
5	115096	21.71	36.55
5	115653	21.81	36.55
5	116210	21.91	36.55
5	116775	22.01	36.55
5	117332	22.11	36.55
5	117889	22.21	36.55
5	118446	22.31	36.55
5	119003	22.41	36.55
5	119560	22.51	36.55
5	120117	22.61	36.55
5	120674	22.71	36.55
5	121231	22.81	36.55
5	121788	22.91	36.55
5	122353	23.01	36.55
5	122910	23.11	36.55
5	123467	23.21	36.55
5	124024	23.31	36.55
5	124581	23.41	36.55
5	125138	23.51	36.55
5	125695	23.61	36.55
5	126252	23.71	36.55
5	126809	23.81	36.55
5	127366	23.91	36.55
5	127931	24.01	36.55
5	128488	24.11	36.55
5	129045	24.21	36.55
5	129602	24.31	36.55
5	130159	24.41	36.55
5	130716	24.51	36.55
5	131273	24.61	36.55
5	131830	24.71	36.55
5	132387	24.81	36.55
5	132944	24.91	36.55
5	133509	25.01	36.55
5	134066	25.11	36.55
5	134623	25.21	36.55
5	135180	25.31	36.55
5	135737	25.41	36.55
5	136294	25.51	36.55
5	136851	25.61	36.55
5	137408	25.71	36.55
5	137965	25.81	36.55
5	138522	25.91	36.55
5	139087	26.01	36.55
5	139644	26.11	36.55
5	140201	26.21	36.55
5	140758	26.31	36.55
5	141315	26.41	36.55
5	141872	26.51	36.55
5	142429	26.61	36.55
5	142986	26.71	36.55
5	143543	26.81	36.55
5	144100	26.91	36.55
5	144665	27.01	36.55
5	145222	27.11	36.55
5	145779	27.21	36.55
5	146336	27.31	36.55
5	146893	27.41	36.55
5	147450	27.51	36.55
5	148007	27.61	36.55
5	148564	27.71	36.55
5	149121	27.81	36.55
5	149678	27.91	36.55
5	150243	28.01	36.55
5	150800	28.11	36.55
5	151357	28.21	36.55
5	151914	28.31	36.55
5	152471	28.41	36.55
5	153028	28.51	36.55
5	153585	28.61	36.55
5	154142	28.71	36.55
5	154699	28.81	36.55
5	155256	28.91	36.55
5	155821	29.01	36.55
5	156378	29.11	36.55
5	156935	29.21	36.55
5	157492	29.31	36.55
5	158049	29.41	36.55
5	158606	29.51	36.55
5	159163	29.61	36.55
5	159720	29.71	36.55
5	160277	29.81	36.55
5	160834	29.91	36.55
5	161399	30.01	36.55
5	161956	30.11	36.55
5	162513	30.21	36.55
5	163070	30.31	36.55
5	163627	30.41	36.55
5	164184	30.51	36.55
5	164741	30.61	36.55
5	165298	30.71	36.55
5	165855	30.81	36.55
5	166412	30.91	36.55
5	166977	31.01	36.55
5	167534	31.11	36.55
5	168091	31.21	36.55
5	168648	31.31	36.55
5	169205	31.41	36.55
5	169762	31.51	36.55
5	170319	31.61	36.55
5	170876	31.71	36.55
5	171433	31.81	36.55
5	171990	31.91	36.55
5	172555	32.01	36.55
5	173112	32.11	36.55
5	173669	32.21	36.55
5	174226	32.31	36.55
5	174783	32.41	36.55
5	175340	32.51	36.55
5	175897	32.61	36.55
5	176454	32.71	36.55
5	177011	32.81	36.55
5	177568	32.91	36.55
5	178133	33.01	36.55
5	178690	33.11	36.55
5	179247	33.21	36.55
5	179804	33.31	36.55
5	180361	33.41	36.55
5	180918	33.51	36.55
5	181475	33.61	36.55
5	182032	33.71	36.55
5	182589	33.81	36.55
5	183146	33.91	36.55
5	183711	34.01	36.55
5	184268	34.11	36.55
5	184825	34.21	36.55
5	185382	34.31	36.55
5	185939	34.41	36.55
5	186496	34.51	36.55
5	187053	34.61	36.55
5	187610	34.71	36.55
5	188167	34.81	36.55
5	188724	34.91	36.55
5	189289	35.01	36.55
5	189846	35.11	36.55
5	190403	35.21	36.55
5	190960	35.31	36.55
5	191517	35.41	36.55
5	192074	35.51	36.55
5	192631	35.61	36.55
5	193188	35.71	36.55
5	193745	35.81	36.55
5	194302	35.91	36.55
5	194867	36.01	36.55
5	195424	36.11	36.55
5	195981	36.21	36.55
5	196538	36.31	36.55
5	197095	36.41	36.55
5	197652	36.51	36.55
5	198209	36.61	36.55
5	198766	36.71	36.55
5	199323	36.81	36.55
5	199880	36.91	36.55
5	200445	37.01	36.55
5	201002	37.11	36.55
5	201559	37.21	36.55
5	202116	37.31	36.55
5	202673	37.41	36.55
5	203230	37.51	36.55
5	203787	37.61	36.55
5	204344	37.71	36.55
5	204901	37.81	36.55
5	205458	37.91	36.55
5	206023	38.01	36.55
5	206580	38.11	36.55
5	207137	38.21	36.55
5	207694	38.31	36.55
5	208251	38.41	36.55
5	208808	38.51	36.55
5	209365	38.61	36.55
5	209922	38.71	36.55
5	210479	38.81	36.55
5	211036	38.91	36.55
5	211601	39.01	36.55
5	212158	39.11	36.55
5	212715	39.21	36.55
5	213272	39.31	36.55
5	213829	39.41	36.55
5	214386	39.51	36.55
5	214943	39.61	36.55
5	215500	39.71	36.55
5	216057	39.81	36.55
5	216614	39.91	36.55
5	217179	40.01	36.55
5	217736	40.11	36.55
5	218293	40.21	36.55
5	218850	40.31	36.55
5	219407	40.41	36.55
5	219964	40.51	36.55
5	220521	40.61	36.55
5	221078	40.71	36.55
5	221635	40.81	36.55
5	222192	40.91	36.55
5	222757	41.01	36.55
5	223314	41.11	36.55
5	223871	41.21	36.55
5	224428	41.31	36.55
5	224985	41.41	36.55
5	225542	41.51	36.55
5	226099	41.61	36.55
5	226656	41.71	36.55
5	227213	41.81	36.55
5	227770	41.91	36.55
5	228335	42.01	36.55
5	228892	42.11	36.55
5	229449	42.21	36.55
5	230006	42.31	36.55
5	230563	42.41	36.55
5	231120	42.51	36.55
5	231677	42.61	36.55
5	232234	42.71	36.55
5	232791	42.81	36.55
5	233348	42.91	36.55
5	233913	43.01	36.55
5	234470	43.11	36.55
5	235027	43.21	36.55
5	235584	43.31	36.55
5	236141	43.41	36.55
5	236698	43.51	36.55
5	237255	43.61	36.55
5	237812	43.71	36.55
5	238369	43.81	36.55
5	238926	43.91	36.55
5	239491	44.01	36.55
5	240048	44.11	36.55
5	240605	44.21	36.55
5	241162	44.31	36.55
5	241719	44.41	36.55
5	242276	44.51	36.55
5	242833	44.61	36.55
5	243390	44.71	36.55
5	243947	44.81	36.55
5	244504	44.91	36.55
5	245069	45.01	36.55
5	245626	45.11	36.55
5	246183	45.21	36.55
5	246740	45.31	36.55
5	247297	45.41	36.55
5	247854	45.51	36.55
5	248411	45.61	36.55
5	248968	45.71	36.55
5	249525	45.81	36.55
5	250082	45.91	36.55
5	250647	46.01	36.55
5	251204	46.11	36.55
5	251761	46.21	36.55
5	252318	46.31	36.55
5	252875	46.41	36.55
5	253432	46.51	36.55
5	253989	46.61	36.55
5	254546	46.71	36.55
5	255103	46.81	36.55
5	255660	46.91	36.55
5	256225	47.01	36.55
5	256782	47.11	36.55
5	257339	47.21	36.55
5	257896	47.31	36.55
5	258453	47.41	36.55
5	259010	47.51	36.55
5	259567	47.61	36.55
5	260124	47.71	36.55
5	260681	47.81	36.55
5	261238	47.91	36.55
5	261803	48.01	36.55
5	262360	48.11	36.55
5	262917	48.21	36.55
5	263474	48.31	36.55
5	264031	48.41	36.55
5	264588	48.51	36.55
5	265145	48.61	36.55
5	265702	48.71	36.55
5	266259	48.81	36.55
5	266816	48.91	36.55
5	267381	49.01	36.55
5	267938	49.11	36.55
5	268495	49.21	36.55
5	269052	49.31	36.55
5	269609	49.41	36.55
5	270166	49.51	36.55
5	270723	49.61	36.55
5	271280	49.71	36.55
5	271837	49.81	36.55
5	272394	49.91	36.55
5	272959	50.01	36.55
5	273516	50.11	36.55
5	274073	50.21	36.55
5	274630	50.31	36.55
5	275187	50.41	36.55
5	275744	50.51	36.55
5	276301	50.61	36.55
5	276858	50.71	36.55
5	277415	50.81	36.55
5	277972	50.91	36.55
5	278537	51.01	36.55
5	279094	51.11	36.55
5	279651	51.21	36.55
5	280208	51.31	36.55
5	280765	51.41	36.55
5	281322	51.51	36.55
5	281879	51.61	36.55
5	282436	51.71	36.55
5	282993	51.81	36.55
5	283550	51.91	36.55
5	284115	52.01	36.55
5	284672	52.11	36.55
5	285229	52.21	36.55
5	285786	52.31	36.55
5	286343	52.41	36.55
5	286900	52.51	36.55
5	287457	52.61	36.55
5	288014	52.71	36.55
5	288571	52.81	36.55
5	289128	52.91	36.55
5	289693	53.01	36.55
5	290250	53.11	36.55
5	290807	53.21	36.55
5	291364	53.31	36.55
5	291921	53.41	36.55
5	292478	53.51	36.55
5	293035	53.61	36.55
5	293592	53.71	36.55
5	294149	53.81	36.55
5	294706	53.91	36.55
5	295271	54.01	36.55
5	295828	54.11	36.55
5	296385	54.21	36.55
5	296942	54.31	36.55
5	297499	54.41	36.55
5	298056	54.51	36.55
5	298613	54.61	36.55
5	299170	54.71	36.55
5	299727	54.81	36.55
5	300284	54.91	36.55
5	300849	55.01	36.55
5	301406	55.11	36.55
5	301963	55.21	36.55
5	302520	55.31	36.55
5	303077	55.41	36.55
5	303634	55.51	36.55
5	304191	55.61	36.55
5	304748	55.71	36.55
5	305305	55.81	36.55
5	305862	55.91	36.55
5	306427	56.01	36.55
5	306984	56.11	36.55
5	307541	56.21	36.55
5	308098	56.31	36.55
5	308655	56.41	36.55
5	309212	56.51	36.55
5	309769	56.61	36.55
5	310326	56.71	36.55
5	310883	56.81	36.55
5	311440	56.91	36.55
5	312005	57.01	36.55
5	312562	57.11	36.55
5	313119	57.21	36.55
5	313676	57.31	36.55
5	314233	57.41	36.55
5	314790	57.51	36.55
5	315347	57.61	36.55
5	315904	57.71	36.55
5	316461	57.81	36.55
5	317018	57.91	36.55
5	317583	58.01	36.55
5	318140	58.11	36.55
5	318697	58.21	36.55
5	319254	58.31	36.55
5	319811	58.41	36.55
5	320368	58.51	36.55
5	320925	58.61	36.55
5	321482	58.71	36.55
5	322039	58.81	36.55
5	322596	58.91	36.55
5	323161	59.01	36.55
5	323718	59.11	36.55
5	324275	59.21	36.55
5	324832	59.31	36.55
5	325389	59.41	36.55
5	325946	59.51	36.55
5	326503	59.61	36.55
5	327060	59.71	36.55
5	327617	59.81	36.55
5	328174	59.91	36.55
4	232	1.11	246.4398601528
4	788	1.21	250.60652694398
4	1344	1.31	254.77319373109
4	1900	1.41	258.9398605127
4	2456	1.51	263.10652728773
4	3012	1.61	267.27319405542
4	3568	1.71	271.43986081528
4	4124	1.81	275.60652756704
4	4680	1.91	279.77319431064
4	5244	2.01	283.93986104616
4	5800	2.11	288.10652777381
4	6356	2.21	292.27319449392
4	6912	2.31	296.43986120688
4	7468	2.41	300.60652791315
4	8024	2.51	304.77319461321
4	8580	2.61	308.93986130759
4	9136	2.71	313.10652799681
4	9692	2.81	317.27319468138
4	10248	2.91	321.43986136183
4	10812	3.01	325.60652803865
4	11368	3.11	329.77319471231
4	11924	3.21	333.93986138324
4	12480	3.31	338.10652805187
4	13036	3.41	342.27319471857
4	13592	3.51	346.43986138369
4	14148	3.61	350.60652804754
4	14704	3.71	354.77319471039
4	15260	3.81	358.93986137251
4	15816	3.91	363.10652803409
4	16380	4.01	367.27319469533
4	16936	4.11	371.43986135638
4	17492	4.21	375.60652801739
4	18048	4.31	379.77319467845
4	18604	4.41	383.93986133966
4	19160	4.51	388.1065280011
4	19716	4.61	392.27319466281
4	20272	4.71	396.43986132483
4	20828	4.81	400.6065279872
4	21384	4.91	404.77319464992
4	21949	5.01	408.93986131301
4	22506	5.11	413.10652934174
4	23063	5.21	417.27342387254
4	23620	5.31	421.44131849706
4	24177	5.41	425.61143784294
4	24734	5.51	429.78533189387
4	25291	5.61	433.96473551225
4	25848	5.71	438.15133418256
4	26405	5.81	442.34652994517
4	26962	5.91	446.55147309336
4	27527	6.01	450.76710726822
4	28084	6.11	454.99420658415
4	28641	6.21	459.23340608455
4	29198	6.31	463.48522672623
4	29755	6.41	467.75009587519
4	30312	6.51	472.02836408874
4	30869	6.61	476.3202891168
4	31426	6.71	480.62582452643
4	31983	6.81	484.94444380107
4	32540	6.91	489.2751581644
4	33105	7.01	493.61655290361
4	33662	7.11	497.96683090421
4	34219	7.21	502.32386224023
4	34776	7.31	506.68523865234
4	35333	7.41	511.04833220357
4	35890	7.51	515.41042996667
4	36447	7.61	519.76903413528
4	37004	7.71	524.12207756408
4	37561	7.81	528.46786447394
4	38118	7.91	532.80500373532
4	38683	8.01	537.13235413746
4	39240	8.11	541.44897949008
4	39797	8.21	545.75411179104
4	40354	8.31	550.04712101112
4	40911	8.41	554.32749030691
4	41468	8.51	558.59479568679
4	42025	8.61	562.84868932996
4	42582	8.71	567.08888590223
4	43139	8.81	571.31515133016
4	43696	8.91	575.52729359203
4	44261	9.01	579.72515516311
4	44818	9.11	583.90860681829
4	45375	9.21	588.07754254796
4	45932	9.31	592.23187538731
4	46489	9.41	596.37153399492
4	47046	9.51	600.49646210876
4	47603	9.61	604.60685502923
4	48160	9.71	608.70357407763
4	48717	9.81	612.78811101637
4	49274	9.91	616.8624829585
4	49839	10.01	620.92912774353
4	50396	10.11	624.99080108828
4	50953	10.21	629.05047575202
4	51510	10.31	633.11107994867
4	52067	10.41	637.17513498736
4	52624	10.51	641.24471569397
4	53181	10.61	645.32152414836
4	53738	10.71	649.40695664885
4	54295	10.81	653.50215864641
4	54852	10.91	657.60806980977
4	55417	11.01	661.72546099459
4	55974	11.11	665.85496457101
4	56531	11.21	669.99709930279
4	57088	11.31	674.15229075688
4	57645	11.41	678.32088804643
4	58202	11.51	682.50317756581
4	58759	11.61	686.69939425816
4	59316	11.71	690.90973085867
4	59873	11.81	695.13434547734
4	60430	11.91	699.37335302003
4	60995	12.01	703.62654845696
4	61552	12.11	707.89308647217
4	62109	12.21	712.17153796433
4	62666	12.31	716.45997704279
4	63223	12.41	720.75606981882
4	63780	12.51	725.05716362882
4	64337	12.61	729.36037626459
4	64894	12.71	733.66281897699
4	65451	12.81	737.9619459916
4	66008	12.91	742.25565820366
4	66573	13.01	746.54223361615
4	67130	13.11	750.82025959175
4	67687	13.21	755.08857727582
4	68244	13.31	759.34623600394
4	68801	13.41	763.59245590017
4	69358	13.51	767.82659719461
4	69915	13.61	772.04813505309
4	70472	13.71	776.25663892881
4	71029	13.81	780.45175562344
4	71586	13.91	784.63319539132
4	72151	14.01	788.80072054008
4	72708	14.11	792.95413607921
4	73265	14.21	797.09328204856
4	73822	14.31	801.2180272251
4	74379	14.41	805.32826474129
4	74936	14.51	809.42406113499
4	75493	14.61	813.50603171222
4	76050	14.71	817.57542020759
4	76607	14.81	821.63401243846
4	77164	14.91	825.68404188902
4	77729	15.01	829.72809516136
4	78286	15.11	833.76901817387
4	78843	15.21	837.80975380029
4	79400	15.31	841.85301119385
4	79957	15.41	845.9010320903
4	80514	15.51	849.95565549374
4	81071	15.61	854.01839002806
4	81628	15.71	858.09047329033
4	82185	15.81	862.17292054117
4	82742	15.91	866.26656464791
4	83307	16.01	870.37208885186
4	83864	16.11	874.49005364887
4	84421	16.21	878.62091884073
4	84978	16.31	882.76506162508
4	85535	16.41	886.92279143536
4	86092	16.51	891.09436211477
4	86649	16.61	895.27998190313
4	87206	16.71	899.47982162964
4	87763	16.81	903.69402143374
4	88320	16.91	907.92269526411
4	88885	17.01	912.16574661675
4	89442	17.11	916.42247712142
4	89999	17.21	920.69157311685
4	90556	17.31	924.97119530623
4	91113	17.41	929.25907117751
4	91670	17.51	933.55258765611
4	92227	17.61	937.84888327462
4	92784	17.71	942.14503238796
4	93341	17.81	946.43838273197
4	93898	17.91	950.72674233482
4	94463	18.01	955.00831301612
4	95020	18.11	959.28161964169
4	95577	18.21	963.54545208768
4	96134	18.31	967.79881763106
4	96691	18.41	972.04090189318
4	97248	18.51	976.27103679988
4	97805	18.61	980.4886742977
4	98362	18.71	984.69336479187
4	98919	18.81	988.88473945811
4	99476	18.91	993.06249573205
4	100041	19.01	997.22638540551
4	100598	19.11	1001.3762048614
4	101155	19.21	1005.5117870626
4	101712	19.31	1009.6329949807
4	102269	19.41	1013.7397171233
4	102826	19.51	1017.8320386563
4	103383	19.61	1021.9106271168
4	103940	19.71	1025.9767702388
4	104497	19.81	1030.0322874821
4	105054	19.91	1034.0794368733
4	105619	20.01	1038.1208216517
4	106176	20.11	1042.1592974956
4	106733	20.21	1046.1977963968
4	107290	20.31	1050.2389916516
4	107847	20.41	1054.2850936309
4	108404	20.51	1058.3379156088
4	108961	20.61	1062.3989451017
4	109518	20.71	1066.469402391
4	110075	20.81	1070.5502885326
4	110632	20.91	1074.6424247409
4	111197	21.01	1078.7464846979
4	111754	21.11	1082.8630210573
4	112311	21.21	1086.9924871877
4	112868	21.31	1091.1352550093
4	113425	21.41	1095.2916296261
4	113982	21.51	1099.4618613297
4	114539	21.61	1103.6461554465
4	115096	21.71	1107.8446804155
4	115653	21.81	1112.0575744154
4	116210	21.91	1116.2849498522
4	116775	22.01	1120.5267174338
4	117332	22.11	1124.7821982003
4	117889	22.21	1129.0500947916
4	118446	22.31	1133.3285803807
4	119003	22.41	1137.6153915584
4	119560	22.51	1141.9079214284
4	120117	22.61	1146.203312156
4	120674	22.71	1150.498634094
4	121231	22.81	1154.7912217374
4	121788	22.91	1159.0788715313
4	122353	23.01	1163.3597757932
4	122910	23.11	1167.632451594
4	123467	23.21	1171.8956824151
4	124024	23.31	1176.1484702878
4	124581	23.41	1180.3899965299
4	125138	23.51	1184.6195895371
4	125695	23.61	1188.8366983598
4	126252	23.71	1193.0408710274
4	126809	23.81	1197.2317367668
4	127366	23.91	1201.4089914146
4	127931	24.01	1205.5723854511
4	128488	24.11	1209.7217141833
4	129045	24.21	1213.8568096913
4	129602	24.31	1217.9775342228
4	130159	24.41	1222.08377571
4	130716	24.51	1226.1756219135
4	131273	24.61	1230.2537475541
4	131830	24.71	1234.3194464195
4	132387	24.81	1238.3745426027
4	132944	24.91	1242.4212975152
4	133509	25.01	1246.462316696
4	134066	25.11	1250.5004571793
4	134623	25.21	1254.5386494825
4	135180	25.31	1258.5795620015
4	135737	25.41	1262.6254008204
4	136294	25.51	1266.6779756966
4	136851	25.61	1270.7387712614
4	137408	25.71	1274.8090054297
4	137965	25.81	1278.8896773158
4	138522	25.91	1282.9816065415
4	139087	26.01	1287.085465482
4	139644	26.11	1291.2018057194
4	140201	26.21	1295.3310797428
4	140758	26.31	1299.4736587512
4	141315	26.41	1303.6298472569
4	141872	26.51	1307.7998950661
4	142429	26.61	1311.9840071068
4	142986	26.71	1316.1823514915
4	143543	26.81	1320.3950661308
4	144100	26.91	1324.6222632178
4	144665	27.01	1328.8638544238
4	145222	27.11	1333.1191634547
4	145779	27.21	1337.3868951971
4	146336	27.31	1341.6652245435
4	146893	27.41	1345.9518893409
4	147450	27.51	1350.2442835467
4	148007	27.61	1354.5395498295
4	148564	27.71	1358.8347579951
4	149121	27.81	1363.1272407201
4	149678	27.91	1367.4147928591
4	150243	28.01	1371.6956054248
4	150800	28.11	1375.9681944174
4	151357	28.21	1380.2313424404
4	151914	28.31	1384.4840508045
4	152471	28.41	1388.7255002366
4	153028	28.51	1392.9550186475
4	153585	28.61	1397.17205469
4	154142	28.71	1401.3761560673
4	154699	28.81	1405.5669517385
4	155256	28.91	1409.7441373207
4	155821	29.01	1413.9074631141
4	156378	29.11	1418.0567242779
4	156935	29.21	1422.1917527711
4	157492	29.31	1426.3124107417
4	158049	29.41	1430.4185860432
4	158606	29.51	1434.5103667936
4	159163	29.61	1438.5884287029
4	159720	29.71	1442.6540663927
4	160277	29.81	1446.709104594
4	160834	29.91	1450.7558051845
4	161399	30.01	1454.7967740201
4	161956	30.11	1458.8348683217
4	162513	30.21	1462.8730184037
4	163070	30.31	1466.9138919872
4	163627	30.41	1470.9596945662
4	164184	30.51	1475.0122354137
4	164741	30.61	1479.0729987639
4	165298	30.71	1483.1432022055
4	165855	30.81	1487.2238445858
4	166412	30.91	1491.3157453071
4	166977	31.01	1495.4195765647
4	167534	31.11	1499.5358897931
4	168091	31.21	1503.6651373605
4	168648	31.31	1507.8076903664
4	169205	31.41	1511.9638532417
4	169762	31.51	1516.1338757256
4	170319	31.61	1520.3179626915
4	170876	31.71	1524.5162822067
4	171433	31.81	1528.7289721451
4	171990	31.91	1532.9561446705
4	172555	32.01	1537.1977115865
4	173112	32.11	1541.4529969666
4	173669	32.21	1545.7207060066
4	174226	32.31	1549.9990138356
4	174783	32.41	1554.2856584741
4	175340	32.51	1558.5780339965
4	175897	32.61	1562.8732831412
4	176454	32.71	1567.1684756383
4	177011	32.81	1571.4609439143
4	177568	32.91	1575.7484826045
4	178133	33.01	1580.0292825421
4	178690	33.11	1584.3018595797
4	179247	33.21	1588.5649962
4	179804	33.31	1592.8176936143
4	180361	33.41	1597.0591324684
4	180918	33.51	1601.2886406061
4	181475	33.61	1605.5056666255
4	182032	33.71	1609.7097581849
4	182589	33.81	1613.9005442064
4	183146	33.91	1618.0777202771
4	183711	34.01	1622.2410366723
4	184268	34.11	1626.3902885307
4	184825	34.21	1630.5253077948
4	185382	34.31	1634.6459565988
4	185939	34.41	1638.7521227854
4	186496	34.51	1642.8438945217
4	187053	34.61	1646.9219476541
4	187610	34.71	1650.9875769189
4	188167	34.81	1655.0426071351
4	188724	34.91	1659.0893002445
4	189289	35.01	1663.1302621467
4	189846	35.11	1667.1683500883
4	190403	35.21	1671.2064943556
4	190960	35.31	1675.2473625771
4	191517	35.41	1679.2931601652
4	192074	35.51	1683.3456963264
4	192631	35.61	1687.40645524
4	193188	35.71	1691.4766544501
4	193745	35.81	1695.5572927669
4	194302	35.91	1699.6491895626
4	194867	36.01	1703.7530170078
4	195424	36.11	1707.8693265166
4	195981	36.21	1711.9985704405
4	196538	36.31	1716.1411198654
4	197095	36.41	1720.2972792109
4	197652	36.51	1724.4672982072
4	198209	36.61	1728.6513817198
4	198766	36.71	1732.8496978101
4	199323	36.81	1737.0623843467
4	199880	36.91	1741.2895534895
4	200445	37.01	1745.5311170604
4	201002	37.11	1749.7863991833
4	201559	37.21	1754.0541050967
4	202116	37.31	1758.3324099625
4	202673	37.41	1762.6190518247
4	203230	37.51	1766.9114247741
4	203787	37.61	1771.2066715586
4	204344	37.71	1775.5018618979
4	204901	37.81	1779.7943281839
4	205458	37.91	1784.0818650221
4	206023	38.01	1788.3626632205
4	206580	38.11	1792.6352386117
4	207137	38.21	1796.8983736616
4	207694	38.31	1801.151069568
4	208251	38.41	1805.3925069653
4	208808	38.51	1809.6220136882
4	209365	38.61	1813.8390383273
4	209922	38.71	1818.0431285345
4	210479	38.81	1822.2339132271
4	211036	38.91	1826.4110879879
4	211601	39.01	1830.5744030888
4	212158	39.11	1834.7236536657
4	212715	39.21	1838.8586716588
4	213272	39.31	1842.9793192004
4	213829	39.41	1847.0854841317
4	214386	39.51	1851.1772546266
4	214943	39.61	1855.2553065503
4	215500	39.71	1859.3209346548
4	216057	39.81	1863.3759637713
4	216614	39.91	1867.4226558504
4	217179	40.01	1871.4636167977
4	217736	40.11	1875.5017038635
4	218293	40.21	1879.53984733
4	218850	40.31	1883.5807148131
4	219407	40.41	1887.6265117138
4	219964	40.51	1891.6790472296
4	220521	40.61	1895.7398055322
4	221078	40.71	1899.8100041596
4	221635	40.81	1903.8906419167
4	222192	40.91	1907.9825381718
4	222757	41.01	1912.086365092
4	223314	41.11	1916.2026740886
4	223871	41.21	1920.3319175107
4	224428	41.31	1924.4744664425
4	224985	41.41	1928.6306253019
4	225542	41.51	1932.8006438178
4	226099	41.61	1936.9847268548
4	226656	41.71	1941.1830424734
4	227213	41.81	1945.3957285415
4	227770	41.91	1949.6228972185
4	228335	42.01	1953.8644603287
4	228892	42.11	1958.1197420031
4	229449	42.21	1962.3874474859
4	230006	42.31	1966.6657519436
4	230563	42.41	1970.9523934234
4	231120	42.51	1975.2447660185
4	231677	42.61	1979.5400124779
4	232234	42.71	1983.8352025201
4	232791	42.81	1988.1276685321
4	233348	42.91	1992.4152051152
4	233913	43.01	1996.6960030741
4	234470	43.11	2000.9685782386
4	235027	43.21	2005.2317130722
4	235584	43.31	2009.4844087709
4	236141	43.41	2013.7258459675
4	236698	43.51	2017.9553524956
4	237255	43.61	2022.1723769446
4	237812	43.71	2026.3764669656
4	238369	43.81	2030.5672514752
4	238926	43.91	2034.7444260556
4	239491	44.01	2038.9077409782
4	240048	44.11	2043.0569913786
4	240605	44.21	2047.1920091967
4	241162	44.31	2051.3126565645
4	241719	44.41	2055.4188213229
4	242276	44.51	2059.5105916469
4	242833	44.61	2063.588643404
4	243390	44.71	2067.6542713488
4	243947	44.81	2071.7093003139
4	244504	44.91	2075.7559922511
4	245069	45.01	2079.7969530669
4	245626	45.11	2083.835040012
4	246183	45.21	2087.8731833683
4	246740	45.31	2091.9140507496
4	247297	45.41	2095.9598475557
4	247854	45.51	2100.0123829826
4	248411	45.61	2104.0731412011
4	248968	45.71	2108.1433397482
4	249525	45.81	2112.2239774283
4	250082	45.91	2116.3158736089
4	250647	46.01	2120.4197004568
4	251204	46.11	2124.5360093828
4	251761	46.21	2128.6652527359
4	252318	46.31	2132.8078015997
4	252875	46.41	2136.9639603921
4	253432	46.51	2141.1339788419
4	253989	46.61	2145.3180618134
4	254546	46.71	2149.5163773671
4	255103	46.81	2153.7290633707
4	255660	46.91	2157.9562319835
4	256225	47.01	2162.1977950303
4	256782	47.11	2166.4530766429
4	257339	47.21	2170.7207820664
4	257896	47.31	2174.9990864679
4	258453	47.41	2179.2857278951
4	259010	47.51	2183.5781004414
4	259567	47.61	2187.873346856
4	260124	47.71	2192.1685368572
4	260681	47.81	2196.4610028315
4	261238	47.91	2200.7485393794
4	261803	48.01	2205.0293373053
4	262360	48.11	2209.3019124386
4	262917	48.21	2213.5650472424
4	263474	48.31	2217.8177429126
4	264031	48.41	2222.0591800816
4	264588	48.51	2226.2886865828
4	265145	48.61	2230.5057110056
4	265702	48.71	2234.709801001
4	266259	48.81	2238.9005854854
4	266816	48.91	2243.077760041
4	267381	49.01	2247.241074939
4	267938	49.11	2251.3903253151
4	268495	49.21	2255.5253431091
4	269052	49.31	2259.6459904529
4	269609	49.41	2263.7521551875
4	270166	49.51	2267.8439254879
4	270723	49.61	2271.9219772222
4	271280	49.71	2275.987605145
4	271837	49.81	2280.0426340892
4	272394	49.91	2284.0893260068
4	272959	50.01	2288.1302868045
4	273516	50.11	2292.168373733
4	274073	50.21	2296.2065170741
4	274630	50.31	2300.2473844414
4	275187	50.41	2304.2931812345
4	275744	50.51	2308.3457166492
4	276301	50.61	2312.4064748561
4	276858	50.71	2316.4766733921
4	277415	50.81	2320.5573110616
4	277972	50.91	2324.649207232
4	278537	51.01	2328.7530340699
4	279094	51.11	2332.8693429862
4	279651	51.21	2336.9985863297
4	280208	51.31	2341.1411351842
4	280765	51.41	2345.2972939674
4	281322	51.51	2349.4673124081
4	281879	51.61	2353.6513953706
4	282436	51.71	2357.8497109153
4	282993	51.81	2362.06239691
4	283550	51.91	2366.289565514
4	284115	52.01	2370.531128552
4	284672	52.11	2374.7864101561
4	285229	52.21	2379.0541155715
4	285786	52.31	2383.3324199652
4	286343	52.41	2387.6190613852
4	286900	52.51	2391.9114339247
4	287457	52.61	2396.2066803332
4	288014	52.71	2400.5018703288
4	288571	52.81	2404.7943362979
4	289128	52.91	2409.081872841
4	289693	53.01	2413.3626707623
4	290250	53.11	2417.6352458913
4	290807	53.21	2421.898380691
4	291364	53.31	2426.1510763572
4	291921	53.41	2430.3925135224
4	292478	53.51	2434.62202002
4	293035	53.61	2438.8390444392
4	293592	53.71	2443.043134431
4	294149	53.81	2447.2339189119
4	294706	53.91	2451.4110934641
4	295271	54.01	2455.5744083588
4	295828	54.11	2459.7236587315
4	296385	54.21	2463.8586765221
4	296942	54.31	2467.9793238627
4	297499	54.41	2472.085488594
4	298056	54.51	2476.1772588912
4	298613	54.61	2480.2553106223
4	299170	54.71	2484.320938542
4	299727	54.81	2488.3759674833
4	300284	54.91	2492.4226593983
4	300849	55.01	2496.4636201935
4	301406	55.11	2500.5017071198
4	301963	55.21	2504.5398504588
4	302520	55.31	2508.5807178241
4	303077	55.41	2512.6265146154
4	303634	55.51	2516.6790500284
4	304191	55.61	2520.7398082337
4	304748	55.71	2524.8100067682
4	305305	55.81	2528.8906444362
4	305862	55.91	2532.9825406052
4	306427	56.01	2537.0863674417
4	306984	56.11	2541.2026763567
4	307541	56.21	2545.3319196989
4	308098	56.31	2549.4744685521
4	308655	56.41	2553.6306273341
4	309212	56.51	2557.8006457735
4	309769	56.61	2561.9847287348
4	310326	56.71	2566.1830442782
4	310883	56.81	2570.3957302717
4	311440	56.91	2574.6228988745
4	312005	57.01	2578.8644619113
4	312562	57.11	2583.1197435142
4	313119	57.21	2587.3874489285
4	313676	57.31	2591.6657533211
4	314233	57.41	2595.9523947401
4	314790	57.51	2600.2447672787
4	315347	57.61	2604.5400136863
4	315904	57.71	2608.8352036811
4	316461	57.81	2613.1276696495
4	317018	57.91	2617.4152061919
4	317583	58.01	2621.6960041127
4	318140	58.11	2625.9685792411
4	318697	58.21	2630.2317140402
4	319254	58.31	2634.4844097059
4	319811	58.41	2638.7258468705
4	320368	58.51	2642.9553533676
4	320925	58.61	2647.1723777863
4	321482	58.71	2651.3764677777
4	322039	58.81	2655.5672522581
4	322596	58.91	2659.7444268098
4	323161	59.01	2663.907741704
4	323718	59.11	2668.0569920763
4	324275	59.21	2672.1920098664
4	324832	59.31	2676.3126572065
4	325389	59.41	2680.4188219374
4	325946	59.51	2684.5105922341
4	326503	59.61	2688.5886439648
4	327060	59.71	2692.6542718841
4	327617	59.81	2696.709300825
4	328174	59.91	2700.7559927397
3	232	1.11	41.666667929418
3	788	1.21	41.666667899951
3	1344	1.31	41.666667853658
3	1900	1.41	41.666667794392
3	2456	1.51	41.666667725546
3	3012	1.61	41.666667650077
3	3568	1.71	41.666667570527
3	4124	1.81	41.666667489057
3	4680	1.91	41.666667407473
3	5244	2.01	41.666667327259
3	5800	2.11	41.666667249607
3	6356	2.21	41.66666717545
3	6912	2.31	41.66666710549
3	7468	2.41	41.666667040228
3	8024	2.51	41.66666697999
3	8580	2.61	41.666666924954
3	9136	2.71	41.666666875173
3	9692	2.81	41.666666830595
3	10248	2.91	41.666666791086
3	10812	3.01	41.666666756443
3	11368	3.11	41.666666726414
3	11924	3.21	41.666666700707
3	12480	3.31	41.666666679009
3	13036	3.41	41.666666660987
3	13592	3.51	41.666666646305
3	14148	3.61	41.666666634625
3	14704	3.71	41.666666625619
3	15260	3.81	41.666666618967
3	15816	3.91	41.666666614365
3	16380	4.01	41.666666611529
3	16936	4.11	41.66666661019
3	17492	4.21	41.666666610106
3	18048	4.31	41.66666661105
3	18604	4.41	41.666666612823
3	19160	4.51	41.666666615243
3	19716	4.61	41.666666618151
3	20272	4.71	41.666666621406
3	20828	4.81	41.666666624888
3	21384	4.91	41.666666628494
3	21949	5.01	41.666666632137
3	22506	5.11	41.666734900033
3	23063	5.21	41.670948476405
3	23620	5.31	41.684664742913
3	24177	5.41	41.711945167374
3	24734	5.51	41.755610823567
3	25291	5.61	41.816952665848
3	25848	5.71	41.894216596382
3	26405	5.81	41.984547685456
3	26962	5.91	42.085598395823
3	27527	6.01	42.195442929292
3	28084	6.11	42.312501460593
3	28641	6.21	42.43547798275
3	29198	6.31	42.563309318645
3	29755	6.41	42.695123292736
3	30312	6.51	42.830202833657
3	30869	6.61	42.967277868462
3	31426	6.71	43.102240784882
3	31983	6.81	43.23027401884
3	32540	6.91	43.346870620625
3	33105	7.01	43.447913783684
3	33662	7.11	43.529744939715
3	34219	7.21	43.589220237998
3	34776	7.31	43.623755328609
3	35333	7.41	43.631381416411
3	35890	7.51	43.612092454521
3	36447	7.61	43.56932103241
3	37004	7.71	43.507285813978
3	37561	7.81	43.429447572987
3	38118	7.91	43.338645349306
3	38683	8.01	43.237208144466
3	39240	8.11	43.127046550912
3	39797	8.21	43.00972791991
3	40354	8.31	42.886538025405
3	40911	8.41	42.758531649867
3	41468	8.51	42.626574082303
3	42025	8.61	42.491375161077
3	42582	8.71	42.353517200886
3	43139	8.81	42.2134779026
3	43696	8.91	42.071649147316
3	44261	9.01	41.928352414027
3	44818	9.11	41.783851427477
3	45375	9.21	41.638362533812
3	45932	9.31	41.492063212224
3	46489	9.41	41.345099057468
3	47046	9.51	41.197687195957
3	47603	9.61	41.054345829873
3	48160	9.71	40.92197732765
3	48717	9.81	40.806518415565
3	49274	9.91	40.712854985186
3	49839	10.01	40.644830941643
3	50396	10.11	40.605270576133
3	50953	10.21	40.595961789979
3	51510	10.31	40.614765090574
3	52067	10.41	40.657138101268
3	52624	10.51	40.71884648357
3	53181	10.61	40.796416605098
3	53738	10.71	40.886998877433
3	54295	10.81	40.988255645561
3	54852	10.91	41.098269218164
3	55417	11.01	41.215466420431
3	55974	11.11	41.33855670108
3	56531	11.21	41.46648135856
3	57088	11.31	41.598371888854
3	57645	11.41	41.733515816169
3	58202	11.51	41.8713286622
3	58759	11.61	42.01133095116
3	59316	11.71	42.153129345907
3	59873	11.81	42.296401172981
3	60430	11.91	42.440475080365
3	60995	12.01	42.58031618601
3	61552	12.11	42.709536275545
3	62109	12.21	42.822598150946
3	62666	12.31	42.914842923842
3	63223	12.41	42.98250305941
3	63780	12.51	43.022702120469
3	64337	12.61	43.033484343958
3	64894	12.71	43.016216261811
3	65451	12.81	42.975102664961
3	66008	12.91	42.914427440664
3	66573	13.01	42.837704868549
3	67130	13.11	42.747817881934
3	67687	13.21	42.647131490264
3	68244	13.31	42.537585825019
3	68801	13.41	42.420772469757
3	69358	13.51	42.297997077347
3	69915	13.61	42.170330737898
3	70472	13.71	42.038652118361
3	71029	13.81	41.903682031675
3	71586	13.91	41.766011795509
3	72151	14.01	41.626126496309
3	72708	14.11	41.484424073913
3	73265	14.21	41.341230977594
3	73822	14.31	41.196815009456
3	74379	14.41	41.051434913329
3	74936	14.51	40.908219760552
3	75493	14.61	40.773448085166
3	76050	14.71	40.653147856182
3	76607	14.81	40.552410818743
3	77164	14.91	40.47538209096
3	77729	15.01	40.425263577507
3	78286	15.11	40.404308597451
3	78843	15.21	40.412557746568
3	79400	15.31	40.44627267704
3	79957	15.41	40.500878417952
3	80514	15.51	40.572621899691
3	81071	15.61	40.658424297982
3	81628	15.71	40.755759904564
3	82185	15.81	40.862556758959
3	82742	15.91	40.977115131913
3	83307	16.01	41.098040653421
3	83864	16.11	41.224189454421
3	84421	16.21	41.354623163871
3	84978	16.31	41.488571990683
3	85535	16.41	41.625404438048
3	86092	16.51	41.76460245863
3	86649	16.61	41.905741073179
3	87206	16.71	42.04847165069
3	87763	16.81	42.19250819231
3	88320	16.91	42.337565506681
3	88885	17.01	42.4798603368
3	89442	17.11	42.612895096878
3	89999	17.21	42.730819673225
3	90556	17.31	42.828699680314
3	91113	17.41	42.90252772365
3	91670	17.51	42.949221043622
3	92227	17.61	42.966635531731
3	92784	17.71	42.955239679248
3	93341	17.81	42.91894335602
3	93898	17.91	42.862219973949
3	94463	18.01	42.788739288885
3	95020	18.11	42.7015117788
3	95577	18.21	42.603007084181
3	96134	18.31	42.495251170402
3	96691	18.41	42.379906034713
3	97248	18.51	42.258335093733
3	97805	18.61	42.131656823968
3	98362	18.71	42.000788765715
3	98919	18.81	41.866483621601
3	99476	18.91	41.729358869944
3	100041	19.01	41.589921058033
3	100598	19.11	41.448585731074
3	101155	19.21	41.305693780873
3	101712	19.31	41.161524857441
3	102269	19.41	41.016354307546
3	102826	19.51	40.873722785233
3	103383	19.61	40.740048622954
3	103940	19.71	40.621247784992
3	104497	19.81	40.522312925574
3	105054	19.91	40.447302443002
3	105619	20.01	40.399343226154
3	106176	20.11	40.380619836989
3	106733	20.21	40.390852261269
3	107290	20.31	40.42619416815
3	107847	20.41	40.482134596392
3	108404	20.51	40.554972986614
3	108961	20.61	40.641673591217
3	109518	20.71	40.73974603982
3	110075	20.81	40.847147361314
3	110632	20.91	40.962201607825
3	111197	21.01	41.083533918363
3	111754	21.11	41.210016428051
3	112311	21.21	41.340723894856
3	112868	21.31	41.47489729805
3	113425	21.41	41.611913976267
3	113982	21.51	41.751263130315
3	114539	21.61	41.892525726947
3	115096	21.71	42.035358012948
3	115653	21.81	42.179477990955
3	116210	21.91	42.324606891881
3	116775	22.01	42.467114711865
3	117332	22.11	42.600552801533
3	117889	22.21	42.71902961828
3	118446	22.31	42.817574119593
[...]
166	325019	59.354429586377	7
166	325576	59.454430063568	7
166	326133	59.554430541432	7
166	326690	59.654431019928	7
166	327247	59.754431499007	7
166	327804	59.854431978611	7
166	328355	59.954432458674	7
165	1068	1.254914677124	7
165	1624	1.354889463495	7
165	2180	1.454877249865	7
165	2736	1.55489103623	7
165	3292	1.654878822584	7
165	3848	1.754853608914	7
165	4404	1.854919395199	7
165	4960	1.954881181418	7
165	5524	2.054920967533	7
165	6080	2.154830753502	7
165	6636	2.254896539274	7
165	7192	2.354923324787	7
165	7748	2.454859109969	7
165	8304	2.554833894735	7
165	8860	2.654899678994	7
165	9416	2.754887462639	7
165	9972	2.854927245559	7
165	10528	2.954876027625	7
165	11092	3.054863808705	7
165	11648	3.154903588657	7
165	12204	3.254865367325	7
165	12760	3.354866144552	7
165	13316	3.454918920167	7
165	13872	3.554867693998	7
165	14428	3.654842465867	7
165	14984	3.754830235589	7
165	15540	3.854831002978	7
165	16096	3.954883767845	7
165	16660	4.05485853	7
165	17216	4.154859289255	7
165	17772	4.25492504542	7
165	18328	4.354912798309	7
165	18884	4.45484854774	7
165	19440	4.554888293531	7
165	19996	4.654863035512	7
165	20552	4.754889773515	7
165	21108	4.85492950738	7
165	21664	4.954852236955	7
165	22229	5.054839962095	7
165	22786	5.15489268267	7
165	23343	5.254867398557	7
165	23900	5.354855109655	7
165	24457	5.454881815878	7
165	25014	5.554895517171	7
165	25571	5.654857213502	7
165	26128	5.754870904869	7
165	26685	5.854871591296	7
165	27242	5.954846272831	7
165	27807	6.054846949553	7
165	28364	6.154899621563	7
165	28921	6.254926288985	7
165	29478	6.354874951965	7
165	30035	6.454836610675	7
165	30592	6.554915265303	7
165	31149	6.654915916059	7
165	31706	6.754851563168	7
165	32263	6.854904206863	7
165	32820	6.954891847385	7
165	33385	7.054840484977	7
165	33942	7.15489311987	7
165	34499	7.254893752292	7
165	35056	7.354855382451	7
165	35613	7.454895010537	7
165	36170	7.554921636714	7
165	36727	7.654896261118	7
165	37284	7.754896883865	7
165	37841	7.854923505042	7
165	38398	7.954872124712	7
165	38963	8.054833742907	7
165	39520	8.15486035964	7
165	40077	8.254860974895	7
165	40634	8.354874588635	7
165	41191	8.454888200795	7
165	41748	8.554914811289	7
165	42305	8.654837420007	7
165	42862	8.754864026822	7
165	43419	8.854838631587	7
165	43976	8.954904234141	7
165	44541	9.054930834299	7
165	45098	9.15490543187	7
165	45655	9.254828026652	7
165	46212	9.354828618431	7
165	46769	9.454855206986	7
165	47326	9.554881792095	7
165	47883	9.654843373532	7
165	48440	9.754869951082	7
165	48997	9.854844524541	7
165	49554	9.954871093729	7
165	50119	10.054923658489	7
165	50676	10.154833218701	7
165	51233	10.254924774277	7
165	51790	10.35488632517	7
165	52347	10.454860871373	7
165	52904	10.554913412912	7
165	53461	10.654874949854	7
165	54018	10.754927482303	7
165	54575	10.854915010395	7
165	55132	10.954837534301	7
165	55697	11.054877054224	7
165	56254	11.154851570399	7
165	56811	11.254865083084	7
165	57368	11.354878592569	7
165	57925	11.454853099166	7
165	58482	11.554827603211	7
165	59039	11.654919105057	7
165	59596	11.754919605071	7
165	60153	11.854920103641	7
165	60710	11.95485560116	7
165	61275	12.054830098024	7
165	61832	12.15492159463	7
165	62389	12.254844091363	7
165	62946	12.354857588591	7
165	63503	12.454871086656	7
165	64060	12.554871585873	7
165	64617	12.654872086517	7
165	65174	12.754833588826	7
165	65731	12.854834092995	7
165	66288	12.954860599179	7
165	66853	13.054913107496	7
165	67410	13.15483561802	7
165	67967	13.254849130784	7
165	68524	13.354836645788	7
165	69081	13.454837162989	7
165	69638	13.55490268231	7
165	70195	13.654890203636	7
165	70752	13.754851726824	7
165	71309	13.854917251694	7
165	71866	13.95486577804	7
165	72431	14.054879305629	7
165	72988	14.154840834206	7
165	73545	14.254893363492	7
165	74102	14.35491989319	7
165	74659	14.45486842299	7
165	75216	14.55492095257	7
165	75773	14.654921481607	7
165	76330	14.754844009781	7
165	76887	14.854896536784	7
165	77444	14.954832062327	7
165	78009	15.05484558615	7
165	78566	15.154872108022	7
165	79123	15.254859627747	7
165	79680	15.354860145168	7
165	80237	15.454847660168	7
165	80794	15.554926172661	7
165	81351	15.654835682608	7
165	81908	15.754862190001	7
165	82465	15.854901694868	7
165	83022	15.954863197277	7
165	83587	16.054889697327	7
165	84144	16.154877195151	7
165	84701	16.254929690913	7
165	85258	16.354891184808	7
165	85815	16.454930677054	7
165	86372	16.554892167902	7
165	86929	16.654918657618	7
165	87486	16.75490614649	7
165	88043	16.854854634827	7
165	88600	16.954894122948	7
165	89165	17.054842611182	7
165	89722	17.154895099861	7
165	90279	17.254869589307	7
165	90836	17.354883079832	7
165	91393	17.454909571726	7
165	91950	17.554858065254	7
165	92507	17.654871560646	7
165	93064	17.754859058098	7
165	93621	17.854898557767	7
165	94178	17.954834059774	7
165	94743	18.054834564198	7
165	95300	18.154887071083	7
165	95857	18.254848580437	7
165	96414	18.354927092229	7
165	96971	18.454901606393	7
165	97528	18.554863122831	7
165	98085	18.654876641409	7
165	98642	18.754851161963	7
165	99199	18.854916684299	7
165	99756	18.954852208198	7
165	100321	19.054904733411	7
165	100878	19.15484025967	7
165	101435	19.254840786688	7
165	101992	19.35482831416	7
165	102549	19.454867841765	7
165	103106	19.554829369174	7
165	103663	19.654894896061	7
165	104220	19.754856422099	7
165	104777	19.854869946978	7
165	105334	19.954909470407	7
165	105899	20.054857992125	7
165	106456	20.1548845119	7
165	107013	20.254859029535	7
165	107570	20.354833544873	7
165	108127	20.454873057797	7
165	108684	20.554847568227	7
165	109241	20.654887076118	7
165	109798	20.754835581465	7
165	110355	20.8548750843	7
165	110912	20.954862584689	7
165	111477	21.054863082732	7
165	112034	21.154902578566	7
165	112591	21.254877072354	7
165	113148	21.354864564294	7
165	113705	21.454852054606	7
165	114262	21.55489154354	7
165	114819	21.654918031366	7
165	115376	21.754879518376	7
165	115933	21.854841004873	7
165	116490	21.95485449118	7
165	117055	22.054893977629	7
165	117612	22.154829464552	7
165	118169	22.25485595227	7
165	118726	22.354856441097	7
165	119283	22.454843931328	7
165	119840	22.554844423225	7
165	120397	22.654922917022	7
165	120954	22.754845412911	7
165	121511	22.854858911055	7
165	122068	22.954885411573	7
165	122633	23.054924914545	7
165	123190	23.154899420016	7
165	123747	23.254899927994	7
165	124304	23.354835438447	7
165	124861	23.454874951312	7
165	125418	23.554888466488	7
165	125975	23.654849983842	7
165	126532	23.754889503209	7
165	127089	23.854851024396	7
165	127646	23.95486454718	7
165	128211	24.054852071315	7
165	128768	24.154930596534	7
165	129325	24.254840122547	7
165	129882	24.354840649048	7
165	130439	24.454828175715	7
165	130996	24.55482870222	7
165	131553	24.654855228235	7
165	132110	24.754920753435	7
165	132667	24.854895277507	7
165	133224	24.95484380016	7
165	133789	25.05484432113	7
165	134346	25.154896840186	7
165	134903	25.254884357131	7
165	135460	25.354884871807	7
165	136017	25.454911384096	7
165	136574	25.554872893915	7
165	137131	25.65488640122	7
165	137688	25.754860906007	7
165	138245	25.854926408305	7
165	138802	25.954874908179	7
165	139367	26.05492740573	7
165	139924	26.154901901093	7
165	140481	26.254928394432	7
165	141038	26.354863885941	7
165	141595	26.454851375841	7
165	142152	26.554838864383	7
165	142709	26.654852351834	7
165	143266	26.754904838484	7
165	143823	26.854866324639	7
165	144380	26.954879810621	7
165	144945	27.054841296757	7
165	145502	27.154867783381	7
165	146059	27.254881270815	7
165	146616	27.354868759373	7
165	147173	27.454830249343	7
165	147730	27.554921740993	7
165	148287	27.654857234556	7
165	148844	27.754909730223	7
165	149401	27.854910228155	7
165	149958	27.95492372847	7
165	150523	28.054859231249	7
165	151080	28.154846736535	7
165	151637	28.254925244337	7
165	152194	28.354886754623	7
165	152751	28.454874267328	7
165	153308	28.554848782351	7
165	153865	28.65491429956	7
165	154422	28.754914818789	7
165	154979	28.854915339844	7
165	155536	28.954915862503	7
165	156101	29.05490338652	7
165	156658	29.154838911625	7
165	157215	29.25493043753	7
165	157772	29.354878963928	7
165	158329	29.454892490497	7
165	158886	29.55488001691	7
165	159443	29.654880542836	7
165	160000	29.75489406795	7
165	160557	29.854881591941	7
165	161114	29.954843114517	7
165	161679	30.054882635413	7
165	162236	30.154909154399	7
165	162793	30.254831671276	7
165	163350	30.354832185887	7
165	163907	30.454910698105	7
165	164464	30.554885207846	7
165	165021	30.654898715057	7
165	165578	30.754886219717	7
165	166135	30.854847721844	7
165	166692	30.954848221487	7
165	167257	31.054900718724	7
165	167814	31.154888213666	7
165	168371	31.254836706452	7
165	168928	31.354876197251	7
165	169485	31.454863686258	7
165	170042	31.554890173687	7
165	170599	31.654890659778	7
165	171156	31.75485214479	7
165	171713	31.854852628999	7
165	172270	31.954866112694	7
165	172835	32.054879596178	7
165	173392	32.154919079756	7
165	173949	32.254880563732	7
165	174506	32.354855048398	7
165	175063	32.454907534035	7
165	175620	32.554882020909	7
165	176177	32.654856509262	7
165	176734	32.754830999318	7
165	177291	32.854870491277	7
165	177848	32.954896985321	7
165	178413	33.054832481609	7
165	178970	33.154845980279	7
165	179527	33.254872481457	7
165	180084	33.354924985238	7
165	180641	33.454886491703	7
165	181198	33.554835000908	7
165	181755	33.65486151289	7
165	182312	33.754901027659	7
165	182869	33.854914545205	7
165	183426	33.954928065493	7
165	183991	34.054928588463	7
165	184548	34.154903114035	7
165	185105	34.254877642101	7
165	185662	34.354904172529	7
165	186219	34.454878705163	7
165	186776	34.554905239824	7
165	187333	34.65482777632	7
165	187890	34.754828314444	7
165	188447	34.854841853983	7
165	189004	34.954907394717	7
165	189569	35.054881936428	7
165	190126	35.154869478898	7
165	190683	35.254831021913	7
165	191240	35.354844565259	7
165	191797	35.454871108729	7
165	192354	35.554923652112	7
165	192911	35.654833195205	7
165	193468	35.7549117378	7
165	194025	35.854847279701	7
165	194582	35.954873820713	7
165	195147	36.054835360649	7
165	195704	36.154900899334	7
165	196261	36.254901436604	7
165	196818	36.354836972306	7
165	197375	36.454889506304	7
165	197932	36.554890038482	7
165	198489	36.654916568738	7
165	199046	36.754917096997	7
165	199603	36.854878623201	7
165	200160	36.954918147317	7
165	200725	37.054853669335	7
165	201282	37.15491918926	7
165	201839	37.254867707116	7
165	202396	37.354894222938	7
165	202953	37.454855736768	7
165	203510	37.554856248657	7
165	204067	37.654869758664	7
165	204624	37.754922266847	7
165	205181	37.854909773273	7
165	205738	37.954910278013	7
165	206303	38.054884781148	7
165	206860	38.154872282768	7
165	207417	38.254833782967	7
165	207974	38.354847281846	7
165	208531	38.454847779507	7
165	209088	38.55484827606	7
165	209645	38.654835771612	7
165	210202	38.754875266268	7
165	210759	38.854836760131	7
165	211316	38.954837253295	7
165	211881	39.054889745846	7
165	212438	39.154851237865	7
165	212995	39.254916729415	7
165	213552	39.354878220547	7
165	214109	39.454865711295	7
165	214666	39.554879201682	7
165	215223	39.654853691715	7
165	215780	39.754867181394	7
165	216337	39.854828670715	7
165	216894	39.954881159666	7
165	217459	40.054881648237	7
165	218016	40.154830136414	7
165	218573	40.254908624188	7
165	219130	40.35487011154	7
165	219687	40.454922598454	7
165	220244	40.554845084906	7
165	220801	40.654845570868	7
165	221358	40.754872056307	7
165	221915	40.854924541186	7
165	222472	40.954925025465	7
165	223037	41.054847509105	7
165	223594	41.154847992062	7
165	224151	41.2548354743	7
165	224708	41.354835955782	7
165	225265	41.45486243648	7
165	225822	41.554927916373	7
165	226379	41.654837395448	7
165	226936	41.754902873707	7
165	227493	41.854877351161	7
165	228050	41.95492982784	7
165	228615	42.054930303783	7
165	229172	42.154891779042	7
165	229729	42.254892253673	7
165	230286	42.35487972774	7
165	230843	42.454880201308	7
165	231400	42.554893674441	7
165	231957	42.654842147202	7
165	232514	42.754881619654	7
165	233071	42.854908091859	7
165	233628	42.954843563882	7
165	234193	43.054883035785	7
165	234750	43.154857507642	7
165	235307	43.254909979525	7
165	235864	43.354858451508	7
165	236421	43.454923923664	7
165	236978	43.554859396071	7
165	237535	43.6548598688	7
165	238092	43.754912341921	7
165	238649	43.854886815499	7
165	239206	43.954913289588	7
165	239771	44.054861764234	7
165	240328	44.154927239471	7
165	240885	44.254927715323	7
165	241442	44.354837191796	7
165	241999	44.454837668881	7
165	242556	44.554864146557	7
165	243113	44.654903624787	7
165	243670	44.754904103529	7
165	244227	44.854839582734	7
165	244784	44.954866062349	7
165	245349	45.054905542322	7
165	245906	45.1549190226	7
165	246463	45.254893503131	7
165	247020	45.354919983858	7
165	247577	45.454842464728	7
165	248134	45.554868945681	7
165	248691	45.654921426654	7
165	249248	45.754869907581	7
165	249805	45.854896388392	7
165	250362	45.954844869014	7
165	250927	46.054832349376	7
165	251484	46.154884829409	7
165	252041	46.254911309047	7
165	252598	46.354846788228	7
165	253155	46.454873266899	7
165	253712	46.554847745015	7
165	254269	46.654835222542	7
165	254826	46.754913699461	7
165	255383	46.854875175764	7
165	255940	46.954836651462	7
165	256505	47.054837126576	7
165	257062	47.154928601142	7
165	257619	47.254851075201	7
165	258176	47.354877548804	7
165	258733	47.454878022	7
165	259290	47.554891494847	7
165	259847	47.654904967392	7
165	260404	47.754879439689	7
165	260961	47.854918911791	7
165	261518	47.954841383753	7
165	262083	48.054828855631	7
165	262640	48.15484232749	7
165	263197	48.254855799398	7
165	263754	48.354843271421	7
165	264311	48.454921743633	7
165	264868	48.554831216102	7
165	265425	48.654883688898	7
165	265982	48.754910162085	7
165	266539	48.854858635725	7
165	267096	48.954846109872	7
165	267661	49.054846584568	7
165	268218	49.154860059846	7
165	268775	49.254834535726	7
165	269332	49.354926012215	7
165	269889	49.454913489303	7
165	270446	49.554848966967	7
165	271003	49.65492744517	7
165	271560	49.754888923871	7
165	272117	49.854863403021	7
165	272674	49.954928882569	7
165	273239	50.05492936246	7
165	273796	50.15489084264	7
165	274353	50.254891323059	7
165	274910	50.354839803664	7
165	275467	50.4548402844	7
165	276024	50.554892765207	7
165	276581	50.654867246023	7
165	277138	50.754893726782	7
165	277695	50.854868207414	7
165	278252	50.954842687852	7
165	278817	51.054921168024	7
165	279374	51.154843647857	7
165	279931	51.254870127288	7
165	280488	51.354909606259	7
165	281045	51.454832084715	7
165	281602	51.554832562613	7
165	282159	51.65487203992	7
165	282716	51.754833516616	7
165	283273	51.854859992695	7
165	283830	51.954912468167	7
165	284395	52.054886943056	7
165	284952	52.154926417398	7
165	285509	52.254861891236	7
165	286066	52.354836364617	7
165	286623	52.454836837597	7
165	287180	52.554889310227	7
165	287737	52.654902782561	7
165	288294	52.754877254649	7
165	288851	52.854838726546	7
165	289408	52.954839198306	7
165	289973	53.054852669991	7
165	290530	53.154918141661	7
165	291087	53.254879613385	7
165	291644	53.354828085231	7
165	292201	53.45490655727	7
165	292758	53.55484202957	7
165	293315	53.654881502205	7
165	293872	53.754920975237	7
165	294429	53.854921448728	7
165	294986	53.95490892273	7
165	295551	54.054922397289	7
165	296108	54.154922872436	7
165	296665	54.254923348192	7
165	297222	54.354910824563	7
165	297779	54.454898301539	7
165	298336	54.554911779096	7
165	298893	54.654847257199	7
165	299450	54.754899735805	7
165	300007	54.854835214865	7
165	300564	54.954913694327	7
165	301129	55.054888174138	7
165	301686	55.154836654244	7
165	302243	55.254902134594	7
165	302800	55.354928615134	7
165	303357	55.454864095809	7
165	303914	55.55491657656	7
165	304471	55.654852057326	7
165	305028	55.754930538039	7
165	305585	55.854931018629	7
165	306142	55.954905499026	7
165	306707	56.054853979161	7
165	307264	56.154828458963	7
165	307821	56.254854938367	7
165	308378	56.354907417312	7
165	308935	56.454829895746	7
165	309492	56.554869373624	7
165	310049	56.654856850912	7
165	310606	56.754857327593	7
165	311163	56.854883803659	7
165	311720	56.954910279121	7
165	312285	57.054884754002	7
165	312842	57.154833228336	7
165	313399	57.254924702168	7
165	313956	57.354873175546	7
165	314513	57.454847648523	7
165	315070	57.554848121152	7
165	315627	57.654848593486	7
165	316184	57.754836065576	7
165	316741	57.854862537476	7
165	317298	57.954889009243	7
165	317863	58.054889480933	7
165	318420	58.15483795261	7
165	318977	58.254838424342	7
165	319534	58.354890896194	7
165	320091	58.45490436824	7
165	320648	58.554839840549	7
165	321205	58.654840313192	7
165	321762	58.754892786233	7
165	322319	58.854841259734	7
165	322876	58.954906733745	7
165	323441	59.054881208312	7
165	323998	59.154855683469	7
165	324555	59.254908159235	7
165	325112	59.354908635615	7
165	325669	59.4548831126	7
165	326226	59.554844590167	7
165	326783	59.65491006828	7
165	327340	59.754923546895	7
165	327897	59.854911025964	7
165	328454	59.954924505434	7
164	5109	2	0
164	10677	3	0
164	16245	4	0
164	21814	5	0
164	27391	6	0
164	32969	7	0
164	38547	8	0
164	44125	9	0
164	49703	10	0
164	55281	11	0
164	60859	12	0
164	66437	13	0
164	72015	14	0
164	77593	15	0
164	83171	16	0
164	88749	17	0
164	94327	18	0
164	99905	19	0
164	105483	20	0
164	111061	21	0
164	116639	22	0
164	122217	23	0
164	127795	24	0
164	133373	25	0
164	138951	26	0
164	144529	27	0
164	150107	28	0
164	155685	29	0
164	161263	30	0
164	166841	31	0
164	172419	32	0
164	177997	33	0
164	183575	34	0
164	189153	35	0
164	194731	36	0
164	200309	37	0
164	205887	38	0
164	211465	39	0
164	217043	40	0
164	222621	41	0
164	228199	42	0
164	233777	43	0
164	239355	44	0
164	244933	45	0
164	250511	46	0
164	256089	47	0
164	261667	48	0
164	267245	49	0
164	272823	50	0
164	278401	51	0
164	283979	52	0
164	289557	53	0
164	295135	54	0
164	300713	55	0
164	306291	56	0
164	311869	57	0
164	317447	58	0
164	323025	59	0
164	328603	60	0
163	5109	2	0.022969
163	10677	3	0.02625
163	16245	4	0.02625
163	21814	5	0.02625
163	27391	6	0.02625
163	32969	7	0.02625
163	38547	8	0.02625
163	44125	9	0.02625
163	49703	10	0.02625
163	55281	11	0.02625
163	60859	12	0.02625
163	66437	13	0.02625
163	72015	14	0.02625
163	77593	15	0.02625
163	83171	16	0.02625
163	88749	17	0.02625
163	94327	18	0.02625
163	99905	19	0.02625
163	105483	20	0.02625
163	111061	21	0.02625
163	116639	22	0.02625
163	122217	23	0.02625
163	127795	24	0.02625
163	133373	25	0.02625
163	138951	26	0.02625
163	144529	27	0.02625
163	150107	28	0.02625
163	155685	29	0.02625
163	161263	30	0.02625
163	166841	31	0.02625
163	172419	32	0.02625
163	177997	33	0.02625
163	183575	34	0.02625
163	189153	35	0.02625
163	194731	36	0.02625
163	200309	37	0.02625
163	205887	38	0.02625
163	211465	39	0.02625
163	217043	40	0.02625
163	222621	41	0.02625
163	228199	42	0.02625
163	233777	43	0.02625
163	239355	44	0.02625
163	244933	45	0.02625
163	250511	46	0.02625
163	256089	47	0.02625
163	261667	48	0.02625
163	267245	49	0.02625
163	272823	50	0.02625
163	278401	51	0.02625
163	283979	52	0.02625
163	289557	53	0.02625
163	295135	54	0.02625
163	300713	55	0.02625
163	306291	56	0.02625
163	311869	57	0.02625
163	317447	58	0.02625
163	323025	59	0.02625
163	328603	60	0.02625
162	5109	2	7
162	10677	3	7
162	16245	4	7
162	21814	5	7
162	27391	6	7
162	32969	7	7
162	38547	8	7
162	44125	9	7
162	49703	10	7
162	55281	11	7
162	60859	12	7
162	66437	13	7
162	72015	14	7
162	77593	15	7
162	83171	16	7
162	88749	17	7
162	94327	18	7
162	99905	19	7
162	105483	20	7
162	111061	21	7
162	116639	22	7
162	122217	23	7
162	127795	24	7
162	133373	25	7
162	138951	26	7
162	144529	27	7
162	150107	28	7
162	155685	29	7
162	161263	30	7
162	166841	31	7
162	172419	32	7
162	177997	33	7
162	183575	34	7
162	189153	35	7
162	194731	36	7
162	200309	37	7
162	205887	38	7
162	211465	39	7
162	217043	40	7
162	222621	41	7
162	228199	42	7
162	233777	43	7
162	239355	44	7
162	244933	45	7
162	250511	46	7
162	256089	47	7
162	261667	48	7
162	267245	49	7
162	272823	50	7
162	278401	51	7
162	283979	52	7
162	289557	53	7
162	295135	54	7
162	300713	55	7
162	306291	56	7
162	311869	57	7
162	317447	58	7
162	323025	59	7
162	328603	60	7
